

        *** GPGPU-Sim Simulator Version 4.0.0  [build gpgpu-sim_git-commit-90ec3399763d7c8512cfe7dc193473086c38ca38_modified_0.0] ***


GPGPU-Sim PTX: simulation mode 0 (can change with PTX_SIM_MODE_FUNC environment variable:
               1=functional simulation only, 0=detailed performance simulator)
GPGPU-Sim PTX: overriding embedded ptx with ptx file (PTX_SIM_USE_PTX_FILE is set)
GPGPU-Sim: Configuration options:

-save_embedded_ptx                      0 # saves ptx files embedded in binary as <n>.ptx
-keep                                   0 # keep intermediate files created by GPGPU-Sim when interfacing with external programs
-gpgpu_ptx_save_converted_ptxplus                    0 # Saved converted ptxplus to a file
-gpgpu_occupancy_sm_number                   75 # The SM number to pass to ptxas when getting register usage for computing GPU occupancy. This parameter is required in the config.
-ptx_opcode_latency_int      4,13,4,5,145,32 # Opcode latencies for integers <ADD,MAX,MUL,MAD,DIV,SHFL>Default 1,1,19,25,145,32
-ptx_opcode_latency_fp          4,13,4,5,39 # Opcode latencies for single precision floating points <ADD,MAX,MUL,MAD,DIV>Default 1,1,1,1,30
-ptx_opcode_latency_dp         8,19,8,8,330 # Opcode latencies for double precision floating points <ADD,MAX,MUL,MAD,DIV>Default 8,8,8,8,335
-ptx_opcode_latency_sfu                  100 # Opcode latencies for SFU instructionsDefault 8
-ptx_opcode_latency_tesnor                   64 # Opcode latencies for Tensor instructionsDefault 64
-ptx_opcode_initiation_int          2,2,2,2,8,4 # Opcode initiation intervals for integers <ADD,MAX,MUL,MAD,DIV,SHFL>Default 1,1,4,4,32,4
-ptx_opcode_initiation_fp            2,2,2,2,4 # Opcode initiation intervals for single precision floating points <ADD,MAX,MUL,MAD,DIV>Default 1,1,1,1,5
-ptx_opcode_initiation_dp          4,4,4,4,130 # Opcode initiation intervals for double precision floating points <ADD,MAX,MUL,MAD,DIV>Default 8,8,8,8,130
-ptx_opcode_initiation_sfu                    8 # Opcode initiation intervals for sfu instructionsDefault 8
-ptx_opcode_initiation_tensor                   64 # Opcode initiation intervals for tensor instructionsDefault 64
-cdp_latency         7200,8000,100,12000,1600 # CDP API latency <cudaStreamCreateWithFlags, cudaGetParameterBufferV2_init_perWarp, cudaGetParameterBufferV2_perKernel, cudaLaunchDeviceV2_init_perWarp, cudaLaunchDevicV2_perKernel>Default 7200,8000,100,12000,1600
-network_mode                           2 # Interconnection network mode
-inter_config_file                   mesh # Interconnection network config file
-icnt_in_buffer_limit                  512 # in_buffer_limit
-icnt_out_buffer_limit                  512 # out_buffer_limit
-icnt_subnets                           2 # subnets
-icnt_arbiter_algo                      1 # arbiter_algo
-icnt_verbose                           0 # inct_verbose
-icnt_grant_cycles                      1 # grant_cycles
-gpgpu_ptx_use_cuobjdump                    1 # Use cuobjdump to extract ptx and sass from binaries
-gpgpu_experimental_lib_support                    0 # Try to extract code from cuda libraries [Broken because of unknown cudaGetExportTable]
-checkpoint_option                      0 #  checkpointing flag (0 = no checkpoint)
-checkpoint_kernel                      1 #  checkpointing during execution of which kernel (1- 1st kernel)
-checkpoint_CTA                         0 #  checkpointing after # of CTA (< less than total CTA)
-resume_option                          0 #  resume flag (0 = no resume)
-resume_kernel                          0 #  Resume from which kernel (1= 1st kernel)
-resume_CTA                             0 #  resume from which CTA 
-checkpoint_CTA_t                       0 #  resume from which CTA 
-checkpoint_insn_Y                      0 #  resume from which CTA 
-gpgpu_ptx_convert_to_ptxplus                    0 # Convert SASS (native ISA) to ptxplus and run ptxplus
-gpgpu_ptx_force_max_capability                   75 # Force maximum compute capability
-gpgpu_ptx_inst_debug_to_file                    0 # Dump executed instructions' debug information to file
-gpgpu_ptx_inst_debug_file       inst_debug.txt # Executed instructions' debug output file
-gpgpu_ptx_inst_debug_thread_uid                    1 # Thread UID for executed instructions' debug output
-gpgpu_simd_model                       1 # 1 = post-dominator
-gpgpu_shader_core_pipeline              1024:32 # shader core pipeline config, i.e., {<nthread>:<warpsize>}
-gpgpu_tex_cache:l1  N:4:128:256,L:R:m:N:L,T:512:8,128:2 # per-shader L1 texture cache  (READ-ONLY) config  {<nsets>:<bsize>:<assoc>,<rep>:<wr>:<alloc>:<wr_alloc>,<mshr>:<N>:<merge>,<mq>:<rf>}
-gpgpu_const_cache:l1 N:128:64:8,L:R:f:N:L,S:2:64,4 # per-shader L1 constant memory cache  (READ-ONLY) config  {<nsets>:<bsize>:<assoc>,<rep>:<wr>:<alloc>:<wr_alloc>,<mshr>:<N>:<merge>,<mq>} 
-gpgpu_cache:il1     N:64:128:16,L:R:f:N:L,S:2:48,4 # shader L1 instruction cache config  {<nsets>:<bsize>:<assoc>,<rep>:<wr>:<alloc>:<wr_alloc>,<mshr>:<N>:<merge>,<mq>} 
-gpgpu_cache:dl1     S:1:128:512,L:L:s:N:L,A:256:8,16:0,32 # per-shader L1 data cache config  {<nsets>:<bsize>:<assoc>,<rep>:<wr>:<alloc>:<wr_alloc>,<mshr>:<N>:<merge>,<mq> | none}
-gpgpu_l1_banks                         4 # The number of L1 cache banks
-gpgpu_l1_banks_byte_interleaving                   32 # l1 banks byte interleaving granularity
-gpgpu_l1_banks_hashing_function                    0 # l1 banks hashing function
-gpgpu_l1_latency                      20 # L1 Hit Latency
-gpgpu_smem_latency                    20 # smem Latency
-gpgpu_cache:dl1PrefL1                 none # per-shader L1 data cache config  {<nsets>:<bsize>:<assoc>,<rep>:<wr>:<alloc>:<wr_alloc>,<mshr>:<N>:<merge>,<mq> | none}
-gpgpu_cache:dl1PrefShared                 none # per-shader L1 data cache config  {<nsets>:<bsize>:<assoc>,<rep>:<wr>:<alloc>:<wr_alloc>,<mshr>:<N>:<merge>,<mq> | none}
-gpgpu_gmem_skip_L1D                    0 # global memory access skip L1D cache (implements -Xptxas -dlcm=cg, default=no skip)
-gpgpu_perfect_mem                      0 # enable perfect memory mode (no cache miss)
-n_regfile_gating_group                    4 # group of lanes that should be read/written together)
-gpgpu_clock_gated_reg_file                    0 # enable clock gated reg file for power calculations
-gpgpu_clock_gated_lanes                    0 # enable clock gated lanes for power calculations
-gpgpu_shader_registers                65536 # Number of registers per shader core. Limits number of concurrent CTAs. (default 8192)
-gpgpu_registers_per_block                65536 # Maximum number of registers per CTA. (default 8192)
-gpgpu_ignore_resources_limitation                    0 # gpgpu_ignore_resources_limitation (default 0)
-gpgpu_shader_cta                      32 # Maximum number of concurrent CTAs in shader (default 8)
-gpgpu_num_cta_barriers                   16 # Maximum number of named barriers per CTA (default 16)
-gpgpu_n_clusters                      30 # number of processing clusters
-gpgpu_n_cores_per_cluster                    1 # number of simd cores per cluster
-gpgpu_n_cluster_ejection_buffer_size                   32 # number of packets in ejection buffer
-gpgpu_n_ldst_response_buffer_size                    2 # number of response packets in ld/st unit ejection buffer
-gpgpu_shmem_per_block                65536 # Size of shared memory per thread block or CTA (default 48kB)
-gpgpu_shmem_size                   65536 # Size of shared memory per shader core (default 16kB)
-gpgpu_adaptive_cache_config                    0 # adaptive_cache_config
-gpgpu_shmem_sizeDefault                65536 # Size of shared memory per shader core (default 16kB)
-gpgpu_shmem_size_PrefL1                16384 # Size of shared memory per shader core (default 16kB)
-gpgpu_shmem_size_PrefShared                16384 # Size of shared memory per shader core (default 16kB)
-gpgpu_shmem_num_banks                   32 # Number of banks in the shared memory in each shader core (default 16)
-gpgpu_shmem_limited_broadcast                    0 # Limit shared memory to do one broadcast per cycle (default on)
-gpgpu_shmem_warp_parts                    1 # Number of portions a warp is divided into for shared memory bank conflict check 
-gpgpu_mem_unit_ports                    1 # The number of memory transactions allowed per core cycle
-gpgpu_shmem_warp_parts                    1 # Number of portions a warp is divided into for shared memory bank conflict check 
-gpgpu_warpdistro_shader                   -1 # Specify which shader core to collect the warp size distribution from
-gpgpu_warp_issue_shader                    0 # Specify which shader core to collect the warp issue distribution from
-gpgpu_local_mem_map                    1 # Mapping from local memory space address to simulated GPU physical address space (default = enabled)
-gpgpu_num_reg_banks                   16 # Number of register banks (default = 8)
-gpgpu_reg_bank_use_warp_id                    0 # Use warp ID in mapping registers to banks (default = off)
-gpgpu_sub_core_model                    1 # Sub Core Volta/Pascal model (default = off)
-gpgpu_enable_specialized_operand_collector                    0 # enable_specialized_operand_collector
-gpgpu_operand_collector_num_units_sp                    4 # number of collector units (default = 4)
-gpgpu_operand_collector_num_units_dp                    0 # number of collector units (default = 0)
-gpgpu_operand_collector_num_units_sfu                    4 # number of collector units (default = 4)
-gpgpu_operand_collector_num_units_int                    0 # number of collector units (default = 0)
-gpgpu_operand_collector_num_units_tensor_core                    4 # number of collector units (default = 4)
-gpgpu_operand_collector_num_units_mem                    2 # number of collector units (default = 2)
-gpgpu_operand_collector_num_units_gen                    8 # number of collector units (default = 0)
-gpgpu_operand_collector_num_in_ports_sp                    1 # number of collector unit in ports (default = 1)
-gpgpu_operand_collector_num_in_ports_dp                    0 # number of collector unit in ports (default = 0)
-gpgpu_operand_collector_num_in_ports_sfu                    1 # number of collector unit in ports (default = 1)
-gpgpu_operand_collector_num_in_ports_int                    0 # number of collector unit in ports (default = 0)
-gpgpu_operand_collector_num_in_ports_tensor_core                    1 # number of collector unit in ports (default = 1)
-gpgpu_operand_collector_num_in_ports_mem                    1 # number of collector unit in ports (default = 1)
-gpgpu_operand_collector_num_in_ports_gen                    8 # number of collector unit in ports (default = 0)
-gpgpu_operand_collector_num_out_ports_sp                    1 # number of collector unit in ports (default = 1)
-gpgpu_operand_collector_num_out_ports_dp                    0 # number of collector unit in ports (default = 0)
-gpgpu_operand_collector_num_out_ports_sfu                    1 # number of collector unit in ports (default = 1)
-gpgpu_operand_collector_num_out_ports_int                    0 # number of collector unit in ports (default = 0)
-gpgpu_operand_collector_num_out_ports_tensor_core                    1 # number of collector unit in ports (default = 1)
-gpgpu_operand_collector_num_out_ports_mem                    1 # number of collector unit in ports (default = 1)
-gpgpu_operand_collector_num_out_ports_gen                    8 # number of collector unit in ports (default = 0)
-gpgpu_coalesce_arch                   75 # Coalescing arch (GT200 = 13, Fermi = 20)
-gpgpu_num_sched_per_core                    4 # Number of warp schedulers per core
-gpgpu_max_insn_issue_per_warp                    1 # Max number of instructions that can be issued per warp in one cycle by scheduler (either 1 or 2)
-gpgpu_dual_issue_diff_exec_units                    1 # should dual issue use two different execution unit resources (Default = 1)
-gpgpu_simt_core_sim_order                    1 # Select the simulation order of cores in a cluster (0=Fix, 1=Round-Robin)
-gpgpu_pipeline_widths 4,0,4,4,4,4,0,4,4,4,8,4,4 # Pipeline widths ID_OC_SP,ID_OC_DP,ID_OC_INT,ID_OC_SFU,ID_OC_MEM,OC_EX_SP,OC_EX_DP,OC_EX_INT,OC_EX_SFU,OC_EX_MEM,EX_WB,ID_OC_TENSOR_CORE,OC_EX_TENSOR_CORE
-gpgpu_tensor_core_avail                    1 # Tensor Core Available (default=0)
-gpgpu_num_sp_units                     4 # Number of SP units (default=1)
-gpgpu_num_dp_units                     0 # Number of DP units (default=0)
-gpgpu_num_int_units                    4 # Number of INT units (default=0)
-gpgpu_num_sfu_units                    4 # Number of SF units (default=1)
-gpgpu_num_tensor_core_units                    4 # Number of tensor_core units (default=1)
-gpgpu_num_mem_units                    1 # Number if ldst units (default=1) WARNING: not hooked up to anything
-gpgpu_scheduler                      gto # Scheduler configuration: < lrr | gto | two_level_active > If two_level_active:<num_active_warps>:<inner_prioritization>:<outer_prioritization>For complete list of prioritization values see shader.h enum scheduler_prioritization_typeDefault: gto
-gpgpu_concurrent_kernel_sm                    0 # Support concurrent kernels on a SM (default = disabled)
-gpgpu_perfect_inst_const_cache                    1 # perfect inst and const cache mode, so all inst and const hits in the cache(default = disabled)
-gpgpu_inst_fetch_throughput                    4 # the number of fetched intruction per warp each cycle
-gpgpu_reg_file_port_throughput                    2 # the number ports of the register file
-specialized_unit_1         0,4,4,4,4,BRA # specialized unit config {<enabled>,<num_units>:<latency>:<initiation>,<ID_OC_SPEC>:<OC_EX_SPEC>,<NAME>}
-specialized_unit_2         0,4,4,4,4,BRA # specialized unit config {<enabled>,<num_units>:<latency>:<initiation>,<ID_OC_SPEC>:<OC_EX_SPEC>,<NAME>}
-specialized_unit_3         0,4,4,4,4,BRA # specialized unit config {<enabled>,<num_units>:<latency>:<initiation>,<ID_OC_SPEC>:<OC_EX_SPEC>,<NAME>}
-specialized_unit_4         0,4,4,4,4,BRA # specialized unit config {<enabled>,<num_units>:<latency>:<initiation>,<ID_OC_SPEC>:<OC_EX_SPEC>,<NAME>}
-specialized_unit_5         0,4,4,4,4,BRA # specialized unit config {<enabled>,<num_units>:<latency>:<initiation>,<ID_OC_SPEC>:<OC_EX_SPEC>,<NAME>}
-specialized_unit_6         0,4,4,4,4,BRA # specialized unit config {<enabled>,<num_units>:<latency>:<initiation>,<ID_OC_SPEC>:<OC_EX_SPEC>,<NAME>}
-specialized_unit_7         0,4,4,4,4,BRA # specialized unit config {<enabled>,<num_units>:<latency>:<initiation>,<ID_OC_SPEC>:<OC_EX_SPEC>,<NAME>}
-specialized_unit_8         0,4,4,4,4,BRA # specialized unit config {<enabled>,<num_units>:<latency>:<initiation>,<ID_OC_SPEC>:<OC_EX_SPEC>,<NAME>}
-gpgpu_perf_sim_memcpy                    1 # Fill the L2 cache on memcpy
-gpgpu_simple_dram_model                    0 # simple_dram_model with fixed latency and BW
-gpgpu_dram_scheduler                    1 # 0 = fifo, 1 = FR-FCFS (defaul)
-gpgpu_dram_partition_queues          64:64:64:64 # i2$:$2d:d2$:$2i
-l2_ideal                               0 # Use a ideal L2 cache that always hit
-gpgpu_cache:dl2     S:64:128:16,L:B:m:L:P,A:192:4,32:0,32 # unified banked L2 data cache config  {<nsets>:<bsize>:<assoc>,<rep>:<wr>:<alloc>:<wr_alloc>,<mshr>:<N>:<merge>,<mq>}
-gpgpu_cache:dl2_texture_only                    0 # L2 cache used for texture only
-gpgpu_n_mem                           12 # number of memory modules (e.g. memory controllers) in gpu
-gpgpu_n_sub_partition_per_mchannel                    2 # number of memory subpartition in each memory module
-gpgpu_n_mem_per_ctrlr                    1 # number of memory chips per memory controller
-gpgpu_memlatency_stat                   14 # track and display latency statistics 0x2 enables MC, 0x4 enables queue logs
-gpgpu_frfcfs_dram_sched_queue_size                   64 # 0 = unlimited (default); # entries per chip
-gpgpu_dram_return_queue_size                  192 # 0 = unlimited (default); # entries per chip
-gpgpu_dram_buswidth                    2 # default = 4 bytes (8 bytes per cycle at DDR)
-gpgpu_dram_burst_length                   16 # Burst length of each DRAM request (default = 4 data bus cycle)
-dram_data_command_freq_ratio                    4 # Frequency ratio between DRAM data bus and command bus (default = 2 times, i.e. DDR)
-gpgpu_dram_timing_opt nbk=16:CCD=4:RRD=10:RCD=20:RAS=50:RP=20:RC=62: CL=20:WL=8:CDLR=9:WR=20:nbkgrp=4:CCDL=4:RTPL=4 # DRAM timing parameters = {nbk:tCCD:tRRD:tRCD:tRAS:tRP:tRC:CL:WL:tCDLR:tWR:nbkgrp:tCCDL:tRTPL}
-gpgpu_l2_rop_latency                  160 # ROP queue latency (default 85)
-dram_latency                         100 # DRAM latency (default 30)
-dram_dual_bus_interface                    0 # dual_bus_interface (default = 0) 
-dram_bnk_indexing_policy                    0 # dram_bnk_indexing_policy (0 = normal indexing, 1 = Xoring with the higher bits) (Default = 0)
-dram_bnkgrp_indexing_policy                    1 # dram_bnkgrp_indexing_policy (0 = take higher bits, 1 = take lower bits) (Default = 0)
-dram_seperate_write_queue_enable                    0 # Seperate_Write_Queue_Enable
-dram_write_queue_size             32:28:16 # Write_Queue_Size
-dram_elimnate_rw_turnaround                    0 # elimnate_rw_turnaround i.e set tWTR and tRTW = 0
-icnt_flit_size                        40 # icnt_flit_size
-gpgpu_mem_addr_mapping dramid@8;00000000.00000000.00000000.00000000.0000RRRR.RRRRRRRR.RBBBCCCC.BCCSSSSS # mapping memory address to dram model {dramid@<start bit>;<memory address map>}
-gpgpu_mem_addr_test                    0 # run sweep test to check address mapping for aliased address
-gpgpu_mem_address_mask                    1 # 0 = old addressing mask, 1 = new addressing mask, 2 = new add. mask + flipped bank sel and chip sel bits
-gpgpu_memory_partition_indexing                    0 # 0 = no indexing, 1 = bitwise xoring, 2 = IPoly, 3 = custom indexing
-gpuwattch_xml_file         gpuwattch.xml # GPUWattch XML file
-power_simulation_enabled                    1 # Turn on power simulator (1=On, 0=Off)
-power_per_cycle_dump                    0 # Dump detailed power output each cycle
-power_trace_enabled                    0 # produce a file for the power trace (1=On, 0=Off)
-power_trace_zlevel                     6 # Compression level of the power trace output log (0=no comp, 9=highest)
-steady_power_levels_enabled                    0 # produce a file for the steady power levels (1=On, 0=Off)
-steady_state_definition                  8:4 # allowed deviation:number of samples
-gpgpu_max_cycle                        0 # terminates gpu simulation early (0 = no limit)
-gpgpu_max_insn                         0 # terminates gpu simulation early (0 = no limit)
-gpgpu_max_cta                          0 # terminates gpu simulation early (0 = no limit)
-gpgpu_max_completed_cta                    0 # terminates gpu simulation early (0 = no limit)
-gpgpu_runtime_stat                   500 # display runtime statistics such as dram utilization {<freq>:<flag>}
-liveness_message_freq                    1 # Minimum number of seconds between simulation liveness messages (0 = always print)
-gpgpu_compute_capability_major                    7 # Major compute capability version number
-gpgpu_compute_capability_minor                    5 # Minor compute capability version number
-gpgpu_flush_l1_cache                    1 # Flush L1 cache at the end of each kernel call
-gpgpu_flush_l2_cache                    0 # Flush L2 cache at the end of each kernel call
-gpgpu_deadlock_detect                    1 # Stop the simulation at deadlock (1=on (default), 0=off)
-gpgpu_ptx_instruction_classification                    0 # if enabled will classify ptx instruction types per kernel (Max 255 kernels now)
-gpgpu_ptx_sim_mode                     0 # Select between Performance (default) or Functional simulation (1)
-gpgpu_clock_domains 1365.0:1365.0:1365.0:3500.0 # Clock Domain Frequencies in MhZ {<Core Clock>:<ICNT Clock>:<L2 Clock>:<DRAM Clock>}
-gpgpu_max_concurrent_kernel                    8 # maximum kernels that can run concurrently on GPU
-gpgpu_cflog_interval                    0 # Interval between each snapshot in control flow logger
-visualizer_enabled                     0 # Turn on visualizer output (1=On, 0=Off)
-visualizer_outputfile                 NULL # Specifies the output log file for visualizer
-visualizer_zlevel                      6 # Compression level of the visualizer output log (0=no comp, 9=highest)
-gpgpu_stack_size_limit                 1024 # GPU thread stack size
-gpgpu_heap_size_limit              8388608 # GPU malloc heap siz4a5bbcd966774a44346f3eed6c5dedfb  /home/ishan/COA/Lab4/gpu-rodinia/cuda/pathfinder/a.out
Extracting PTX file and ptxas options    1: a.1.sm_52.ptx -arch=sm_52
e 
-gpgpu_runtime_sync_depth_limit                    2 # GPU device runtime synchronize depth
-gpgpu_runtime_pending_launch_count_limit                 2048 # GPU device runtime pending launch count
-trace_enabled                          0 # Turn on traces
-trace_components                    none # comma seperated list of traces to enable. Complete list found in trace_streams.tup. Default none
-trace_sampling_core                    0 # The core which is printed using CORE_DPRINTF. Default 0
-trace_sampling_memory_partition                   -1 # The memory partition which is printed using MEMPART_DPRINTF. Default -1 (i.e. all)
-enable_ptx_file_line_stats                    1 # Turn on PTX source line statistic profiling. (1 = On)
-ptx_line_stats_filename gpgpu_inst_stats.txt # Output file for PTX source line statistics.
-gpgpu_kernel_launch_latency                 5000 # Kernel launch latency in cycles. Default: 0
-gpgpu_cdp_enabled                      0 # Turn on CDP
-gpgpu_TB_launch_latency                    0 # thread block launch latency in cycles. Default: 0
DRAM Timing Options:
nbk                                    16 # number of banks
CCD                                     4 # column to column delay
RRD                                    10 # minimal delay between activation of rows in different banks
RCD                                    20 # row to column delay
RAS                                    50 # time needed to activate row
RP                                     20 # time needed to precharge (deactivate) row
RC                                     62 # row cycle time
CDLR                                    9 # switching from write to read (changes tWTR)
WR                                     20 # last data-in to row precharge
CL                                     20 # CAS latency
WL                                      8 # Write latency
nbkgrp                                  4 # number of bank groups
CCDL                                    4 # column to column delay between accesses to different bank groups
RTPL                                    4 # read to precharge delay between accesses to different bank groups
Total number of memory sub partition = 24
addr_dec_mask[CHIP]  = 0000000000000000 	high:64 low:0
addr_dec_mask[BK]    = 0000000000007080 	high:15 low:7
addr_dec_mask[ROW]   = 000000000fff8000 	high:28 low:15
addr_dec_mask[COL]   = 0000000000000f7f 	high:12 low:0
addr_dec_mask[BURST] = 000000000000001f 	high:5 low:0
sub_partition_id_mask = 0000000000000080
GPGPU-Sim uArch: clock freqs: 1365000000.000000:1365000000.000000:1365000000.000000:3500000000.000000
GPGPU-Sim uArch: clock periods: 0.00000000073260073260:0.00000000073260073260:0.00000000073260073260:0.00000000028571428571
*** Initializing Memory Statistics ***
GPGPU-Sim uArch: performance model initialization complete.
self exe links to: /home/ishan/COA/Lab4/gpu-rodinia/cuda/pathfinder/a.out
self exe links to: /home/ishan/COA/Lab4/gpu-rodinia/cuda/pathfinder/a.out
11.0
GPGPU-Sim PTX: __cudaRegisterFatBinary, fat_cubin_handle = 1, filename=default
self exe links to: /home/ishan/COA/Lab4/gpu-rodinia/cuda/pathfinder/a.out
Running md5sum using "md5sum /home/ishan/COA/Lab4/gpu-rodinia/cuda/pathfinder/a.out "
self exe links to: /home/ishan/COA/Lab4/gpu-rodinia/cuda/pathfinder/a.out
Extracting specific PTX file named a.1.sm_52.ptx 
GPGPU-Sim PTX: __cudaRegisterFunction _Z14dynproc_kerneliPiS_S_iiii : hostFun 0x0x5569aec3aba4, fat_cubin_handle = 1
GPGPU-Sim PTX: Parsing a.1.sm_52.ptx
GPGPU-Sim PTX: allocating shared region for "_ZZ14dynproc_kerneliPiS_S_iiiiE4prev" from 0x0 to 0x400 (shared memory space)
GPGPU-Sim PTX: allocating shared region for "_ZZ14dynproc_kerneliPiS_S_iiiiE6result" from 0x400 to 0x800 (shared memory space)
GPGPU-Sim PTX: instruction assembly for function '_Z14dynproc_kerneliPiS_S_iiii'...   done.
GPGPU-Sim PTX: finished parsing EMBEDDED .ptx file a.1.sm_52.ptx
GPGPU-Sim PTX: loading globals with explicit initializers... 
GPGPU-Sim PTX: finished loading globals (0 bytes total).
GPGPU-Sim PTX: loading constants with explicit initializers...  done.
GPGPU-Sim PTX: Loading PTXInfo from a.1.sm_52.ptx
GPGPU-Sim PTX: Kernel '_Z14dynproc_kerneliPiS_S_iiii' : regs=18, lmem=0, smem=2048, cmem=368
pyramidHeight: 20
gridSize: [10000]
border:[20]
blockSize: 256
blockGrid:[47]
targetBlock:[216]
GPGPU-Sim PTX: Setting up arguments for 4 bytes starting at 0x7ffc1d5a62fc..
GPGPU-Sim PTX: Setting up arguments for 8 bytes starting at 0x7ffc1d5a62f0..
GPGPU-Sim PTX: Setting up arguments for 8 bytes starting at 0x7ffc1d5a62e8..
GPGPU-Sim PTX: Setting up arguments for 8 bytes starting at 0x7ffc1d5a62e0..
GPGPU-Sim PTX: Setting up arguments for 4 bytes starting at 0x7ffc1d5a62f8..
GPGPU-Sim PTX: Setting up arguments for 4 bytes starting at 0x7ffc1d5a62dc..
GPGPU-Sim PTX: Setting up arguments for 4 bytes starting at 0x7ffc1d5a6390..
GPGPU-Sim PTX: Setting up arguments for 4 bytes starting at 0x7ffc1d5a6398..

GPGPU-Sim PTX: cudaLaunch for 0x0x5569aec3aba4 (mode=performance simulation) on stream 0
GPGPU-Sim PTX: finding reconvergence points for '_Z14dynproc_kerneliPiS_S_iiii'...
GPGPU-Sim PTX: Finding dominators for '_Z14dynproc_kerneliPiS_S_iiii'...
GPGPU-Sim PTX: Finding immediate dominators for '_Z14dynproc_kerneliPiS_S_iiii'...
GPGPU-Sim PTX: Finding postdominators for '_Z14dynproc_kerneliPiS_S_iiii'...
GPGPU-Sim PTX: Finding immediate postdominators for '_Z14dynproc_kerneliPiS_S_iiii'...
GPGPU-Sim PTX: pre-decoding instructions for '_Z14dynproc_kerneliPiS_S_iiii'...
GPGPU-Sim PTX: reconvergence points for _Z14dynproc_kerneliPiS_S_iiii...
GPGPU-Sim PTX:  1 (potential) branch divergence @  PC=0x0c0 (a.1.sm_52.ptx:61) @!%p3 bra BB0_2;
GPGPU-Sim PTX:    immediate post dominator      @  PC=0x110 (a.1.sm_52.ptx:75) bar.sync 0;
GPGPU-Sim PTX:  2 (potential) branch divergence @  PC=0x0c8 (a.1.sm_52.ptx:62) bra.uni BB0_1;
GPGPU-Sim PTX:    immediate post dominator      @  PC=0x0d0 (a.1.sm_52.ptx:65) cvta.to.global.u64 %rd4, %rd2;
GPGPU-Sim PTX:  3 (potential) branch divergence @  PC=0x120 (a.1.sm_52.ptx:77) @%p4 bra BB0_10;
GPGPU-Sim PTX:    immediate post dominator      @  PC=0x338 (a.1.sm_52.ptx:157) and.b16 %rs6, %rs8, 255;
GPGPU-Sim PTX:  4 (potential) branch divergence @  PC=0x208 (a.1.sm_52.ptx:109) @!%p12 bra BB0_6;
GPGPU-Sim PTX:    immediate post dominator      @  PC=0x2b8 (a.1.sm_52.ptx:135) bar.sync 0;
GPGPU-Sim PTX:  5 (potential) branch divergence @  PC=0x210 (a.1.sm_52.ptx:110) bra.uni BB0_5;
GPGPU-Sim PTX:    immediate post dominator      @  PC=0x218 (a.1.sm_52.ptx:113) ld.shared.u32 %r70, [%r2];
GPGPU-Sim PTX:  6 (potential) branch divergence @  PC=0x2c8 (a.1.sm_52.ptx:137) @%p15 bra BB0_10;
GPGPU-Sim PTX:    immediate post dominator      @  PC=0x338 (a.1.sm_52.ptx:157) and.b16 %rs6, %rs8, 255;
GPGPU-Sim PTX:  7 (potential) branch divergence @  PC=0x2d8 (a.1.sm_52.ptx:140) @%p16 bra BB0_9;
GPGPU-Sim PTX:    immediate post dominator      @  PC=0x310 (a.1.sm_52.ptx:150) bar.sync 0;
GPGPU-Sim PTX:  8 (potential) branch divergence @  PC=0x330 (a.1.sm_52.ptx:154) @%p17 bra BB0_4;
GPGPU-Sim PTX:    immediate post dominator      @  PC=0x338 (a.1.sm_52.ptx:157) and.b16 %rs6, %rs8, 255;
GPGPU-Sim PTX:  9 (potential) branch divergence @  PC=0x348 (a.1.sm_52.ptx:159) @%p18 bra BB0_12;
GPGPU-Sim PTX:    immediate post dominator      @  PC=0x390 (a.1.sm_52.ptx:171) ret;
GPGPU-Sim PTX: ... end of reconvergence points for _Z14dynproc_kerneliPiS_S_iiii
GPGPU-Sim PTX: ... done pre-decoding instructions for '_Z14dynproc_kerneliPiS_S_iiii'.
GPGPU-Sim PTX: pushing kernel '_Z14dynproc_kerneliPiS_S_iiii' to stream 0, gridDim= (47,1,1) blockDim = (256,1,1) 
GPGPU-Sim uArch: Shader 0 bind to kernel 1 '_Z14dynproc_kerneliPiS_S_iiii'
GPGPU-Sim uArch: CTA/core = 4, limited by: threads
GPGPU-Sim uArch: Shader 1 bind to kernel 1 '_Z14dynproc_kerneliPiS_S_iiii'
GPGPU-Sim uArch: Shader 2 bind to kernel 1 '_Z14dynproc_kerneliPiS_S_iiii'
GPGPU-Sim uArch: Shader 3 bind to kernel 1 '_Z14dynproc_kerneliPiS_S_iiii'
GPGPU-Sim uArch: Shader 4 bind to kernel 1 '_Z14dynproc_kerneliPiS_S_iiii'
GPGPU-Sim uArch: Shader 5 bind to kernel 1 '_Z14dynproc_kerneliPiS_S_iiii'
GPGPU-Sim uArch: Shader 6 bind to kernel 1 '_Z14dynproc_kerneliPiS_S_iiii'
GPGPU-Sim uArch: Shader 7 bind to kernel 1 '_Z14dynproc_kerneliPiS_S_iiii'
GPGPU-Sim uArch: Shader 8 bind to kernel 1 '_Z14dynproc_kerneliPiS_S_iiii'
GPGPU-Sim uArch: Shader 9 bind to kernel 1 '_Z14dynproc_kerneliPiS_S_iiii'
GPGPU-Sim uArch: Shader 10 bind to kernel 1 '_Z14dynproc_kerneliPiS_S_iiii'
GPGPU-Sim uArch: Shader 11 bind to kernel 1 '_Z14dynproc_kerneliPiS_S_iiii'
GPGPU-Sim uArch: Shader 12 bind to kernel 1 '_Z14dynproc_kerneliPiS_S_iiii'
GPGPU-Sim uArch: Shader 13 bind to kernel 1 '_Z14dynproc_kerneliPiS_S_iiii'
GPGPU-Sim uArch: Shader 14 bind to kernel 1 '_Z14dynproc_kerneliPiS_S_iiii'
GPGPU-Sim uArch: Shader 15 bind to kernel 1 '_Z14dynproc_kerneliPiS_S_iiii'
GPGPU-Sim uArch: Shader 16 bind to kernel 1 '_Z14dynproc_kerneliPiS_S_iiii'
GPGPU-Sim uArch: Shader 17 bind to kernel 1 '_Z14dynproc_kerneliPiS_S_iiii'
GPGPU-Sim uArch: Shader 18 bind to kernel 1 '_Z14dynproc_kerneliPiS_S_iiii'
GPGPU-Sim uArch: Shader 19 bind to kernel 1 '_Z14dynproc_kerneliPiS_S_iiii'
GPGPU-Sim uArch: Shader 20 bind to kernel 1 '_Z14dynproc_kerneliPiS_S_iiii'
GPGPU-Sim uArch: Shader 21 bind to kernel 1 '_Z14dynproc_kerneliPiS_S_iiii'
GPGPU-Sim uArch: Shader 22 bind to kernel 1 '_Z14dynproc_kerneliPiS_S_iiii'
GPGPU-Sim uArch: Shader 23 bind to kernel 1 '_Z14dynproc_kerneliPiS_S_iiii'
GPGPU-Sim uArch: Shader 24 bind to kernel 1 '_Z14dynproc_kerneliPiS_S_iiii'
GPGPU-Sim uArch: Shader 25 bind to kernel 1 '_Z14dynproc_kerneliPiS_S_iiii'
GPGPU-Sim uArch: Shader 26 bind to kernel 1 '_Z14dynproc_kerneliPiS_S_iiii'
GPGPU-Sim uArch: Shader 27 bind to kernel 1 '_Z14dynproc_kerneliPiS_S_iiii'
GPGPU-Sim uArch: Shader 28 bind to kernel 1 '_Z14dynproc_kerneliPiS_S_iiii'
GPGPU-Sim uArch: Shader 29 bind to kernel 1 '_Z14dynproc_kerneliPiS_S_iiii'
Destroy streams for kernel 1: size 0
kernel_name = _Z14dynproc_kerneliPiS_S_iiii 
kernel_launch_uid = 1 
gpu_sim_cycle = 19425
gpu_sim_insn = 12710760
gpu_ipc =     654.3506
gpu_tot_sim_cycle = 19425
gpu_tot_sim_insn = 12710760
gpu_tot_ipc =     654.3506
gpu_tot_issued_cta = 47
gpu_occupancy = 39.0594% 
gpu_tot_occupancy = 39.0594% 
max_total_param_size = 0
gpu_stall_dramfull = 0
gpu_stall_icnt2sh    = 0
partiton_level_parallism =       1.6029
partiton_level_parallism_total  =       1.6029
partiton_level_parallism_util =       3.8760
partiton_level_parallism_util_total  =       3.8760
L2_BW  =      70.0139 GB/Sec
L2_BW_total  =      70.0139 GB/Sec
gpu_total_sim_rate=353076

========= Core cache stats =========
L1I_cache:
	L1I_total_cache_accesses = 0
	L1I_total_cache_misses = 0
	L1I_total_cache_pending_hits = 0
	L1I_total_cache_reservation_fails = 0
L1D_cache:
	L1D_cache_core[0]: Access = 1604, Miss = 1604, Miss_rate = 1.000, Pending_hits = 0, Reservation_fails = 0
	L1D_cache_core[1]: Access = 1640, Miss = 1640, Miss_rate = 1.000, Pending_hits = 0, Reservation_fails = 0
	L1D_cache_core[2]: Access = 1640, Miss = 1640, Miss_rate = 1.000, Pending_hits = 0, Reservation_fails = 0
	L1D_cache_core[3]: Access = 1640, Miss = 1640, Miss_rate = 1.000, Pending_hits = 0, Reservation_fails = 0
	L1D_cache_core[4]: Access = 1640, Miss = 1640, Miss_rate = 1.000, Pending_hits = 0, Reservation_fails = 0
	L1D_cache_core[5]: Access = 1640, Miss = 1640, Miss_rate = 1.000, Pending_hits = 0, Reservation_fails = 0
	L1D_cache_core[6]: Access = 1640, Miss = 1640, Miss_rate = 1.000, Pending_hits = 0, Reservation_fails = 0
	L1D_cache_core[7]: Access = 1640, Miss = 1640, Miss_rate = 1.000, Pending_hits = 0, Reservation_fails = 0
	L1D_cache_core[8]: Access = 1640, Miss = 1640, Miss_rate = 1.000, Pending_hits = 0, Reservation_fails = 0
	L1D_cache_core[9]: Access = 1640, Miss = 1640, Miss_rate = 1.000, Pending_hits = 0, Reservation_fails = 0
	L1D_cache_core[10]: Access = 1640, Miss = 1640, Miss_rate = 1.000, Pending_hits = 0, Reservation_fails = 0
	L1D_cache_core[11]: Access = 1640, Miss = 1640, Miss_rate = 1.000, Pending_hits = 0, Reservation_fails = 0
	L1D_cache_core[12]: Access = 1640, Miss = 1640, Miss_rate = 1.000, Pending_hits = 0, Reservation_fails = 0
	L1D_cache_core[13]: Access = 1640, Miss = 1640, Miss_rate = 1.000, Pending_hits = 0, Reservation_fails = 0
	L1D_cache_core[14]: Access = 1640, Miss = 1640, Miss_rate = 1.000, Pending_hits = 0, Reservation_fails = 0
	L1D_cache_core[15]: Access = 1640, Miss = 1640, Miss_rate = 1.000, Pending_hits = 0, Reservation_fails = 0
	L1D_cache_core[16]: Access = 1076, Miss = 1076, Miss_rate = 1.000, Pending_hits = 0, Reservation_fails = 0
	L1D_cache_core[17]: Access = 820, Miss = 820, Miss_rate = 1.000, Pending_hits = 0, Reservation_fails = 0
	L1D_cache_core[18]: Access = 820, Miss = 820, Miss_rate = 1.000, Pending_hits = 0, Reservation_fails = 0
	L1D_cache_core[19]: Access = 820, Miss = 820, Miss_rate = 1.000, Pending_hits = 0, Reservation_fails = 0
	L1D_cache_core[20]: Access = 820, Miss = 820, Miss_rate = 1.000, Pending_hits = 0, Reservation_fails = 0
	L1D_cache_core[21]: Access = 820, Miss = 820, Miss_rate = 1.000, Pending_hits = 0, Reservation_fails = 0
	L1D_cache_core[22]: Access = 820, Miss = 820, Miss_rate = 1.000, Pending_hits = 0, Reservation_fails = 0
	L1D_cache_core[23]: Access = 820, Miss = 820, Miss_rate = 1.000, Pending_hits = 0, Reservation_fails = 0
	L1D_cache_core[24]: Access = 820, Miss = 820, Miss_rate = 1.000, Pending_hits = 0, Reservation_fails = 0
	L1D_cache_core[25]: Access = 820, Miss = 820, Miss_rate = 1.000, Pending_hits = 0, Reservation_fails = 0
	L1D_cache_core[26]: Access = 820, Miss = 820, Miss_rate = 1.000, Pending_hits = 0, Reservation_fails = 0
	L1D_cache_core[27]: Access = 820, Miss = 820, Miss_rate = 1.000, Pending_hits = 0, Reservation_fails = 0
	L1D_cache_core[28]: Access = 820, Miss = 820, Miss_rate = 1.000, Pending_hits = 0, Reservation_fails = 0
	L1D_cache_core[29]: Access = 820, Miss = 820, Miss_rate = 1.000, Pending_hits = 0, Reservation_fails = 0
	L1D_total_cache_accesses = 37940
	L1D_total_cache_misses = 37940
	L1D_total_cache_miss_rate = 1.0000
	L1D_total_cache_pending_hits = 0
	L1D_total_cache_reservation_fails = 0
	L1D_cache_data_port_util = 0.000
	L1D_cache_fill_port_util = 0.070
L1C_cache:
	L1C_total_cache_accesses = 0
	L1C_total_cache_misses = 0
	L1C_total_cache_pending_hits = 0
	L1C_total_cache_reservation_fails = 0
L1T_cache:
	L1T_total_cache_accesses = 0
	L1T_total_cache_misses = 0
	L1T_total_cache_pending_hits = 0
	L1T_total_cache_reservation_fails = 0

Total_core_cache_stats:
	Total_core_cache_stats_breakdown[GLOBAL_ACC_R][HIT] = 0
	Total_core_cache_stats_breakdown[GLOBAL_ACC_R][HIT_RESERVED] = 0
	Total_core_cache_stats_breakdown[GLOBAL_ACC_R][MISS] = 19550
	Total_core_cache_stats_breakdown[GLOBAL_ACC_R][RESERVATION_FAIL] = 0
	Total_core_cache_stats_breakdown[GLOBAL_ACC_R][SECTOR_MISS] = 16816
	Total_core_cache_stats_breakdown[LOCAL_ACC_R][HIT] = 0
	Total_core_cache_stats_breakdown[LOCAL_ACC_R][HIT_RESERVED] = 0
	Total_core_cache_stats_breakdown[LOCAL_ACC_R][MISS] = 0
	Total_core_cache_stats_breakdown[LOCAL_ACC_R][RESERVATION_FAIL] = 0
	Total_core_cache_stats_breakdown[LOCAL_ACC_R][SECTOR_MISS] = 0
	Total_core_cache_stats_breakdown[CONST_ACC_R][HIT] = 0
	Total_core_cache_stats_breakdown[CONST_ACC_R][HIT_RESERVED] = 0
	Total_core_cache_stats_breakdown[CONST_ACC_R][MISS] = 0
	Total_core_cache_stats_breakdown[CONST_ACC_R][RESERVATION_FAIL] = 0
	Total_core_cache_stats_breakdown[CONST_ACC_R][SECTOR_MISS] = 0
	Total_core_cache_stats_breakdown[TEXTURE_ACC_R][HIT] = 0
	Total_core_cache_stats_breakdown[TEXTURE_ACC_R][HIT_RESERVED] = 0
	Total_core_cache_stats_breakdown[TEXTURE_ACC_R][MISS] = 0
	Total_core_cache_stats_breakdown[TEXTURE_ACC_R][RESERVATION_FAIL] = 0
	Total_core_cache_stats_breakdown[TEXTURE_ACC_R][SECTOR_MISS] = 0
	Total_core_cache_stats_breakdown[GLOBAL_ACC_W][HIT] = 0
	Total_core_cache_stats_breakdown[GLOBAL_ACC_W][HIT_RESERVED] = 0
	Total_core_cache_stats_breakdown[GLOBAL_ACC_W][MISS] = 1574
	Total_core_cache_stats_breakdown[GLOBAL_ACC_W][RESERVATION_FAIL] = 0
	Total_core_cache_stats_breakdown[GLOBAL_ACC_W][SECTOR_MISS] = 0
	Total_core_cache_stats_breakdown[LOCAL_ACC_W][HIT] = 0
	Total_core_cache_stats_breakdown[LOCAL_ACC_W][HIT_RESERVED] = 0
	Total_core_cache_stats_breakdown[LOCAL_ACC_W][MISS] = 0
	Total_core_cache_stats_breakdown[LOCAL_ACC_W][RESERVATION_FAIL] = 0
	Total_core_cache_stats_breakdown[LOCAL_ACC_W][SECTOR_MISS] = 0
	Total_core_cache_stats_breakdown[L1_WRBK_ACC][HIT] = 0
	Total_core_cache_stats_breakdown[L1_WRBK_ACC][HIT_RESERVED] = 0
	Total_core_cache_stats_breakdown[L1_WRBK_ACC][MISS] = 0
	Total_core_cache_stats_breakdown[L1_WRBK_ACC][RESERVATION_FAIL] = 0
	Total_core_cache_stats_breakdown[L1_WRBK_ACC][SECTOR_MISS] = 0
	Total_core_cache_stats_breakdown[L2_WRBK_ACC][HIT] = 0
	Total_core_cache_stats_breakdown[L2_WRBK_ACC][HIT_RESERVED] = 0
	Total_core_cache_stats_breakdown[L2_WRBK_ACC][MISS] = 0
	Total_core_cache_stats_breakdown[L2_WRBK_ACC][RESERVATION_FAIL] = 0
	Total_core_cache_stats_breakdown[L2_WRBK_ACC][SECTOR_MISS] = 0
	Total_core_cache_stats_breakdown[INST_ACC_R][HIT] = 0
	Total_core_cache_stats_breakdown[INST_ACC_R][HIT_RESERVED] = 0
	Total_core_cache_stats_breakdown[INST_ACC_R][MISS] = 0
	Total_core_cache_stats_breakdown[INST_ACC_R][RESERVATION_FAIL] = 0
	Total_core_cache_stats_breakdown[INST_ACC_R][SECTOR_MISS] = 0
	Total_core_cache_stats_breakdown[L1_WR_ALLOC_R][HIT] = 0
	Total_core_cache_stats_breakdown[L1_WR_ALLOC_R][HIT_RESERVED] = 0
	Total_core_cache_stats_breakdown[L1_WR_ALLOC_R][MISS] = 0
	Total_core_cache_stats_breakdown[L1_WR_ALLOC_R][RESERVATION_FAIL] = 0
	Total_core_cache_stats_breakdown[L1_WR_ALLOC_R][SECTOR_MISS] = 0
	Total_core_cache_stats_breakdown[L2_WR_ALLOC_R][HIT] = 0
	Total_core_cache_stats_breakdown[L2_WR_ALLOC_R][HIT_RESERVED] = 0
	Total_core_cache_stats_breakdown[L2_WR_ALLOC_R][MISS] = 0
	Total_core_cache_stats_breakdown[L2_WR_ALLOC_R][RESERVATION_FAIL] = 0
	Total_core_cache_stats_breakdown[L2_WR_ALLOC_R][SECTOR_MISS] = 0
	Total_core_cache_stats_breakdown[GLOBAL_ACC_R][TOTAL_ACCESS] = 36366
	Total_core_cache_stats_breakdown[GLOBAL_ACC_W][TOTAL_ACCESS] = 1574

Total_core_cache_fail_stats:
ctas_completed 47, Shader 0 warp_id issue ditsribution:
warp_id:
0, 1, 2, 3, 4, 5, 6, 7, 8, 9, 10, 11, 12, 13, 14, 15, 
distro:
1166, 1166, 1166, 1166, 1166, 1166, 1166, 1166, 1166, 1166, 1166, 1166, 1166, 1166, 1166, 1166, 
gpgpu_n_tot_thrd_icount = 13941152
gpgpu_n_tot_w_icount = 435661
gpgpu_n_stall_shd_mem = 29778
gpgpu_n_mem_read_local = 0
gpgpu_n_mem_write_local = 0
gpgpu_n_mem_read_global = 29562
gpgpu_n_mem_write_global = 1574
gpgpu_n_mem_texture = 0
gpgpu_n_mem_const = 0
gpgpu_n_load_insn  = 229320
gpgpu_n_store_insn = 10000
gpgpu_n_shmem_insn = 1306720
gpgpu_n_sstarr_insn = 0
gpgpu_n_tex_insn = 0
gpgpu_n_const_mem_insn = 0
gpgpu_n_param_mem_insn = 84224
gpgpu_n_shmem_bkconflict = 0
gpgpu_n_cache_bkconflict = 0
gpgpu_n_intrawarp_mshr_merge = 0
gpgpu_n_cmem_portconflict = 0
gpgpu_stall_shd_mem[c_mem][resource_stall] = 0
gpgpu_stall_shd_mem[s_mem][bk_conf] = 0
gpgpu_stall_shd_mem[gl_mem][resource_stall] = 29778
gpgpu_stall_shd_mem[gl_mem][coal_stall] = 0
gpgpu_stall_shd_mem[gl_mem][data_port_stall] = 0
gpu_reg_bank_conflict_stalls = 0
Warp Occupancy Distribution:
Stall:12887	W0_Idle:36469	W0_Scoreboard:1202551	W1:0	W2:0	W3:0	W4:0	W5:0	W6:0	W7:0	W8:0	W9:0	W10:0	W11:0	W12:3219	W13:2484	W14:2484	W15:2484	W16:2484	W17:2484	W18:2484	W19:2484	W20:3035	W21:2484	W22:2484	W23:2484	W24:2484	W25:2484	W26:2484	W27:2484	W28:2484	W29:2484	W30:2484	W31:2484	W32:384695
single_issue_nums: WS0:109053	WS1:109053	WS2:109053	WS3:108502	
dual_issue_nums: WS0:0	WS1:0	WS2:0	WS3:0	
traffic_breakdown_coretomem[GLOBAL_ACC_R] = 236496 {8:29562,}
traffic_breakdown_coretomem[GLOBAL_ACC_W] = 62960 {40:1574,}
traffic_breakdown_memtocore[GLOBAL_ACC_R] = 1182480 {40:29562,}
traffic_breakdown_memtocore[GLOBAL_ACC_W] = 12592 {8:1574,}
maxmflatency = 368 
max_icnt2mem_latency = 50 
maxmrqlatency = 56 
max_icnt2sh_latency = 58 
averagemflatency = 301 
avg_icnt2mem_latency = 25 
avg_mrq_latency = 4 
avg_icnt2sh_latency = 3 
mrq_lat_table:16383 	2247 	2067 	2399 	2559 	595 	0 	0 	0 	0 	0 	0 	0 	0 	0 	0 	0 	0 	0 	0 	0 	0 	0 	0 	0 	0 	0 	0 	0 	0 	0 	0 	
dq_lat_table:0 	0 	0 	0 	0 	0 	0 	0 	0 	0 	0 	0 	0 	0 	0 	0 	0 	0 	0 	0 	0 	0 	0 	0 	0 	0 	0 	0 	0 	0 	0 	0 	
mf_lat_table:0 	0 	0 	0 	0 	0 	0 	2393 	28743 	0 	0 	0 	0 	0 	0 	0 	0 	0 	0 	0 	0 	0 	0 	0 	0 	0 	0 	0 	0 	0 	0 	0 	
icnt2mem_lat_table:0 	0 	0 	0 	29601 	1535 	0 	0 	0 	0 	0 	0 	0 	0 	0 	0 	0 	0 	0 	0 	0 	0 	0 	0 	
icnt2sh_lat_table:0 	25171 	4984 	687 	241 	53 	0 	0 	0 	0 	0 	0 	0 	0 	0 	0 	0 	0 	0 	0 	0 	0 	0 	0 	
mf_lat_pw_table:0 	0 	0 	0 	0 	0 	0 	1 	27 	0 	0 	0 	0 	0 	0 	0 	0 	0 	0 	0 	0 	0 	0 	0 	0 	0 	0 	0 	0 	0 	0 	0 	
maximum concurrent accesses to same row:
dram[0]:        64        64        64        64        64        64        64        64        64        64        64        64        64        64        64        64 
dram[1]:        64        64        64        64        64        64        64        64        64        64        64        64        64        64        64        64 
dram[2]:        64        64        64        64        64        64        64        64        64        64        64        64        64        64        64        64 
dram[3]:        64        64        64        64        64        64        64        64        64        64        64        64        64        64        64        64 
dram[4]:        64        64        64        64        64        64        64        64        64        64        64        64        64        64        64        64 
dram[5]:        64        64        64        64        64        64        64        64        64        64        64        64        64        64        64        64 
dram[6]:        64        64        64        64        64        64        64        64        64        64        64        64        64        64        64        64 
dram[7]:        64        64        64        64        64        64        64        64        64        64        64        64        64        64        64        64 
dram[8]:        64        64        64        64        64        64        64        64        64        64        64        64        64        64        64        64 
dram[9]:        64        64        64        64        64        64        64        64        64        64        64        64        64        64        64        64 
dram[10]:        64        64        64        64        64        64        64        64        64        64        64        64        64        64        64        64 
dram[11]:        64        64        64        64        64        64        64        64        64        64        64        64        64        64        64        64 
maximum service time to same row:
dram[0]:     11085     11074     11846     11845     12502     12499     13140     13155     14381     14392     15095     15089     15769     15765     16435     16430 
dram[1]:     11071     11076     11855     11888     12493     12491     13151     13150     14407     14394     15082     15077     15747     15746     16413     16409 
dram[2]:     11103     10678     11885     11888     12539     12536     13193     13192     14390     14380     15074     15079     15758     15755     16420     16414 
dram[3]:     10676     10673     11890     11890     12555     12547     13197     13192     14376     14386     15106     15103     15777     15772     16420     16431 
dram[4]:     11039     11034     11890     11887     12543     12544     13190     13187     13814     13813     14448     14440     15767     15726     16437     16436 
dram[5]:     11033     11061     11892     11894     12543     12558     13215     13213     13811     14372     14438     15082     15724     15727     16376     16379 
dram[6]:     11044     11043     11894     11904     12557     12551     13208     13217     14310     14308     15113     15147     15764     15774     16384     16438 
dram[7]:     11065     11064     11901     11890     12567     12552     13231     13220     14302     14299     15145     15102     15798     15750     16423     16422 
dram[8]:     11074     11101     11867     11866     12528     12519     13178     13175     14320     14312     15111     15114     15748     15745     16393     16389 
dram[9]:     11082     11078     11852     11842     12500     12496     13180     13172     14310     14305     15089     15099     15743     15756     16399     16398 
dram[10]:     11095     11090     11841     11837     12485     12481     13163     13158     14395     14403     15093     15086     15752     15750     16394     16415 
dram[11]:     11083     11090     11832     11831     12487     12507     13155     13165     14398     14386     15085     15104     15739     15758     16406     16404 
average row accesses per activate:
dram[0]: 91.000000 90.000000 72.000000 72.000000 128.000000 128.000000 128.000000 128.000000 128.000000 128.000000 128.000000 128.000000 128.000000 128.000000 128.000000 128.000000 
dram[1]: 90.000000 90.000000 72.000000 72.000000 128.000000 128.000000 128.000000 128.000000 128.000000 128.000000 128.000000 128.000000 128.000000 128.000000 128.000000 128.000000 
dram[2]: 90.000000 90.000000 74.000000 74.000000 128.000000 128.000000 128.000000 128.000000 128.000000 128.000000 128.000000 128.000000 128.000000 128.000000 128.000000 128.000000 
dram[3]: 90.000000 90.000000 74.000000 74.000000 128.000000 128.000000 128.000000 128.000000 128.000000 128.000000 128.000000 128.000000 128.000000 128.000000 128.000000 128.000000 
dram[4]: 90.000000 90.000000 74.000000 74.000000 128.000000 128.000000 128.000000 128.000000 128.000000 128.000000 128.000000 128.000000 128.000000 128.000000 128.000000 128.000000 
dram[5]: 90.000000 90.000000 74.000000 74.000000 128.000000 128.000000 128.000000 128.000000 128.000000 128.000000 128.000000 128.000000 128.000000 128.000000 128.000000 128.000000 
dram[6]: 90.000000 90.000000 74.000000 74.000000 128.000000 128.000000 128.000000 128.000000 128.000000 128.000000 128.000000 128.000000 128.000000 128.000000 128.000000 128.000000 
dram[7]: 90.000000 90.000000 72.000000 72.000000 128.000000 128.000000 128.000000 128.000000 128.000000 128.000000 128.000000 128.000000 128.000000 128.000000 128.000000 128.000000 
dram[8]: 90.000000 90.000000 72.000000 72.000000 128.000000 128.000000 128.000000 128.000000 128.000000 128.000000 128.000000 128.000000 128.000000 128.000000 128.000000 128.000000 
dram[9]: 90.000000 90.000000 72.000000 72.000000 128.000000 128.000000 128.000000 128.000000 128.000000 128.000000 128.000000 128.000000 128.000000 128.000000 128.000000 128.000000 
dram[10]: 90.000000 90.000000 72.000000 72.000000 128.000000 128.000000 128.000000 128.000000 128.000000 128.000000 128.000000 128.000000 128.000000 128.000000 128.000000 128.000000 
dram[11]: 90.000000 90.000000 72.000000 72.000000 128.000000 128.000000 128.000000 128.000000 128.000000 128.000000 128.000000 128.000000 128.000000 128.000000 128.000000 128.000000 
average row locality = 26250/240 = 109.375000
number of total memory accesses made:
dram[0]:         0         0         0         0         0         0         0         0         0         0         0         0         0         0         0         0 
dram[1]:         0         0         0         0         0         0         0         0         0         0         0         0         0         0         0         0 
dram[2]:         0         0         0         0         0         0         0         0         0         0         0         0         0         0         0         0 
dram[3]:         0         0         0         0         0         0         0         0         0         0         0         0         0         0         0         0 
dram[4]:         0         0         0         0         0         0         0         0         0         0         0         0         0         0         0         0 
dram[5]:         0         0         0         0         0         0         0         0         0         0         0         0         0         0         0         0 
dram[6]:         0         0         0         0         0         0         0         0         0         0         0         0         0         0         0         0 
dram[7]:         0         0         0         0         0         0         0         0         0         0         0         0         0         0         0         0 
dram[8]:         0         0         0         0         0         0         0         0         0         0         0         0         0         0         0         0 
dram[9]:         0         0         0         0         0         0         0         0         0         0         0         0         0         0         0         0 
dram[10]:         0         0         0         0         0         0         0         0         0         0         0         0         0         0         0         0 
dram[11]:         0         0         0         0         0         0         0         0         0         0         0         0         0         0         0         0 
total accesses: 0
min_bank_accesses = 0!
min_chip_accesses = 0!
number of total read accesses:
dram[0]:       182       180       144       144       128       128       128       128       128       128       128       128       128       128       128       128 
dram[1]:       180       180       144       144       128       128       128       128       128       128       128       128       128       128       128       128 
dram[2]:       180       180       148       148       128       128       128       128       128       128       128       128       128       128       128       128 
dram[3]:       180       180       148       148       128       128       128       128       128       128       128       128       128       128       128       128 
dram[4]:       180       180       148       148       128       128       128       128       128       128       128       128       128       128       128       128 
dram[5]:       180       180       148       148       128       128       128       128       128       128       128       128       128       128       128       128 
dram[6]:       180       180       148       148       128       128       128       128       128       128       128       128       128       128       128       128 
dram[7]:       180       180       144       144       128       128       128       128       128       128       128       128       128       128       128       128 
dram[8]:       180       180       144       144       128       128       128       128       128       128       128       128       128       128       128       128 
dram[9]:       180       180       144       144       128       128       128       128       128       128       128       128       128       128       128       128 
dram[10]:       180       180       144       144       128       128       128       128       128       128       128       128       128       128       128       128 
dram[11]:       180       180       144       144       128       128       128       128       128       128       128       128       128       128       128       128 
total dram reads = 26250
bank skew: 182/128 = 1.42
chip skew: 2192/2184 = 1.00
number of total write accesses:
dram[0]:         0         0         0         0         0         0         0         0         0         0         0         0         0         0         0         0 
dram[1]:         0         0         0         0         0         0         0         0         0         0         0         0         0         0         0         0 
dram[2]:         0         0         0         0         0         0         0         0         0         0         0         0         0         0         0         0 
dram[3]:         0         0         0         0         0         0         0         0         0         0         0         0         0         0         0         0 
dram[4]:         0         0         0         0         0         0         0         0         0         0         0         0         0         0         0         0 
dram[5]:         0         0         0         0         0         0         0         0         0         0         0         0         0         0         0         0 
dram[6]:         0         0         0         0         0         0         0         0         0         0         0         0         0         0         0         0 
dram[7]:         0         0         0         0         0         0         0         0         0         0         0         0         0         0         0         0 
dram[8]:         0         0         0         0         0         0         0         0         0         0         0         0         0         0         0         0 
dram[9]:         0         0         0         0         0         0         0         0         0         0         0         0         0         0         0         0 
dram[10]:         0         0         0         0         0         0         0         0         0         0         0         0         0         0         0         0 
dram[11]:         0         0         0         0         0         0         0         0         0         0         0         0         0         0         0         0 
total dram writes = 0
min_bank_accesses = 0!
min_chip_accesses = 0!
average mf latency per bank:
dram[0]:        351       359       407       402       362       367       344       351       336       351       323       346       336       339       330       333
dram[1]:        362       377       396       400       350       349       334       353       339       336       339       335       331       344       336       353
dram[2]:        356       367       402       409       345       352       349       337       328       330       337       343       328       332       333       336
dram[3]:        369       365       398       396       351       374       343       361       336       340       324       342       333       340       330       333
dram[4]:        354       381       396       400       352       356       337       339       341       338       336       340       337       341       330       343
dram[5]:        356       360       401       411       358       366       352       366       317       342       327       338       328       334       343       332
dram[6]:        362       380       398       402       348       373       339       356       344       339       336       344       331       345       326       345
dram[7]:        358       377       398       405       360       361       347       338       340       338       333       340       338       337       334       331
dram[8]:        367       362       397       409       353       368       341       360       325       330       327       334       328       329       338       338
dram[9]:        351       370       398       398       348       357       352       343       332       341       335       344       327       335       321       334
dram[10]:        361       374       395       402       356       364       346       352       338       345       331       335       343       345       337       335
dram[11]:        365       376       398       403       350       354       336       351       334       333       336       334       328       334       330       348
maximum mf latency per bank:
dram[0]:        328       356       330       333       326       347       317       327       335       340       326       347       323       349       339       344
dram[1]:        337       355       326       357       319       340       321       321       323       336       317       357       331       340       334       332
dram[2]:        327       350       316       350       319       338       341       345       319       330       332       357       321       329       342       342
dram[3]:        318       350       330       350       327       343       318       339       332       339       324       339       327       351       338       336
dram[4]:        323       354       331       344       322       347       323       346       338       336       326       340       319       344       334       351
dram[5]:        324       359       332       343       325       345       328       337       332       341       316       335       314       332       330       334
dram[6]:        330       368       330       339       333       342       326       339       323       345       317       348       315       326       334       333
dram[7]:        336       356       319       337       337       348       321       327       323       330       330       334       317       327       337       330
dram[8]:        324       364       325       335       324       359       320       331       340       346       320       330       321       336       330       330
dram[9]:        332       348       321       339       330       365       325       338       322       328       317       345       317       329       324       335
dram[10]:        327       349       336       354       338       352       322       339       315       344       339       352       324       335       320       343
dram[11]:        331       354       343       341       337       341       318       331       324       332       321       342       317       321       318       341
Memory Partition 0: 
Cache L2_bank_000:
MSHR contents

Cache L2_bank_001:
MSHR contents

In Dram Latency Queue (total = 0): 
DRAM[0]: 16 bks, busW=2 BL=16 CL=20, tRRD=10 tCCD=4, tRCD=20 tRAS=50 tRP=20 tRC=62
n_cmd=49806 n_nop=47564 n_act=36 n_pre=20 n_ref_event=93912397216416 n_req=2186 n_rd=2186 n_rd_L2_A=0 n_write=0 n_wr_bk=0 bw_util=0.1756
n_activity=11870 dram_eff=0.7366
bk0: 182a 49273i bk1: 180a 48788i bk2: 144a 49351i bk3: 144a 49191i bk4: 128a 49311i bk5: 128a 49091i bk6: 128a 49421i bk7: 128a 49093i bk8: 128a 49351i bk9: 128a 48998i bk10: 128a 49435i bk11: 128a 49101i bk12: 128a 49353i bk13: 128a 49078i bk14: 128a 49392i bk15: 128a 49082i 

------------------------------------------------------------------------

Row_Buffer_Locality = 0.990851
Row_Buffer_Locality_read = 0.990851
Row_Buffer_Locality_write = -nan
Bank_Level_Parallism = 1.458375
Bank_Level_Parallism_Col = 0.670414
Bank_Level_Parallism_Ready = 1.403292
write_to_read_ratio_blp_rw_average = 0.000000
GrpLevelPara = 0.000000 

BW Util details:
bwutil = 0.175561 
total_CMD = 49806 
util_bw = 8744 
Wasted_Col = 322 
Wasted_Row = 159 
Idle = 40581 

BW Util Bottlenecks: 
RCDc_limit = 411 
RCDWRc_limit = 0 
WTRc_limit = 0 
RTWc_limit = 0 
CCDLc_limit = 0 
rwq = 0 
CCDLc_limit_alone = 0 
WTRc_limit_alone = 0 
RTWc_limit_alone = 0 

Commands details: 
total_CMD = 49806 
n_nop = 47564 
Read = 2186 
Write = 0 
L2_Alloc = 0 
L2_WB = 0 
n_act = 36 
n_pre = 20 
n_ref = 93912397216416 
n_req = 2186 
total_req = 2186 

Dual Bus Interface Util: 
issued_total_row = 56 
issued_total_col = 2186 
Row_Bus_Util =  0.001124 
CoL_Bus_Util = 0.043890 
Either_Row_CoL_Bus_Util = 0.045015 
Issued_on_Two_Bus_Simul_Util = 0.000000 
issued_two_Eff = 0.000000 
queue_avg = 0.548528 


dram_util_bins: 0 0 0 0 0 0 0 0 0 0
dram_eff_bins: 0 0 0 0 0 0 0 0 0 0
mrqq: max=18 avg=0.548528
Memory Partition 1: 
Cache L2_bank_002:
MSHR contents

Cache L2_bank_003:
MSHR contents

In Dram Latency Queue (total = 0): 
DRAM[1]: 16 bks, busW=2 BL=16 CL=20, tRRD=10 tCCD=4, tRCD=20 tRAS=50 tRP=20 tRC=62
n_cmd=49806 n_nop=47567 n_act=36 n_pre=20 n_ref_event=177536 n_req=2184 n_rd=2184 n_rd_L2_A=0 n_write=0 n_wr_bk=0 bw_util=0.1754
n_activity=11621 dram_eff=0.7517
bk0: 180a 49208i bk1: 180a 48676i bk2: 144a 49361i bk3: 144a 49057i bk4: 128a 49417i bk5: 128a 49126i bk6: 128a 49428i bk7: 128a 49152i bk8: 128a 49338i bk9: 128a 48979i bk10: 128a 49408i bk11: 128a 49097i bk12: 128a 49377i bk13: 128a 48989i bk14: 128a 49350i bk15: 128a 49059i 

------------------------------------------------------------------------

Row_Buffer_Locality = 0.990842
Row_Buffer_Locality_read = 0.990842
Row_Buffer_Locality_write = -nan
Bank_Level_Parallism = 1.478657
Bank_Level_Parallism_Col = 1.446088
Bank_Level_Parallism_Ready = 1.431579
write_to_read_ratio_blp_rw_average = 0.000000
GrpLevelPara = 1.446088 

BW Util details:
bwutil = 0.175401 
total_CMD = 49806 
util_bw = 8736 
Wasted_Col = 292 
Wasted_Row = 115 
Idle = 40663 

BW Util Bottlenecks: 
RCDc_limit = 355 
RCDWRc_limit = 0 
WTRc_limit = 0 
RTWc_limit = 0 
CCDLc_limit = 0 
rwq = 0 
CCDLc_limit_alone = 0 
WTRc_limit_alone = 0 
RTWc_limit_alone = 0 

Commands details: 
total_CMD = 49806 
n_nop = 47567 
Read = 2184 
Write = 0 
L2_Alloc = 0 
L2_WB = 0 
n_act = 36 
n_pre = 20 
n_ref = 177536 
n_req = 2184 
total_req = 2184 

Dual Bus Interface Util: 
issued_total_row = 56 
issued_total_col = 2184 
Row_Bus_Util =  0.001124 
CoL_Bus_Util = 0.043850 
Either_Row_CoL_Bus_Util = 0.044954 
Issued_on_Two_Bus_Simul_Util = 0.000020 
issued_two_Eff = 0.000447 
queue_avg = 0.538007 


dram_util_bins: 0 0 0 0 0 0 0 0 0 0
dram_eff_bins: 0 0 0 0 0 0 0 0 0 0
mrqq: max=18 avg=0.538007
Memory Partition 2: 
Cache L2_bank_004:
MSHR contents

Cache L2_bank_005:
MSHR contents

In Dram Latency Queue (total = 0): 
DRAM[2]: 16 bks, busW=2 BL=16 CL=20, tRRD=10 tCCD=4, tRCD=20 tRAS=50 tRP=20 tRC=62
n_cmd=49806 n_nop=47558 n_act=36 n_pre=20 n_ref_event=0 n_req=2192 n_rd=2192 n_rd_L2_A=0 n_write=0 n_wr_bk=0 bw_util=0.176
n_activity=12112 dram_eff=0.7239
bk0: 180a 49223i bk1: 180a 48756i bk2: 148a 49348i bk3: 148a 48953i bk4: 128a 49394i bk5: 128a 49134i bk6: 128a 49370i bk7: 128a 49141i bk8: 128a 49474i bk9: 128a 49232i bk10: 128a 49330i bk11: 128a 49060i bk12: 128a 49394i bk13: 128a 49149i bk14: 128a 49383i bk15: 128a 49075i 

------------------------------------------------------------------------

Row_Buffer_Locality = 0.990876
Row_Buffer_Locality_read = 0.990876
Row_Buffer_Locality_write = -nan
Bank_Level_Parallism = 1.444086
Bank_Level_Parallism_Col = 1.421294
Bank_Level_Parallism_Ready = 1.395349
write_to_read_ratio_blp_rw_average = 0.000000
GrpLevelPara = 1.421294 

BW Util details:
bwutil = 0.176043 
total_CMD = 49806 
util_bw = 8768 
Wasted_Col = 311 
Wasted_Row = 175 
Idle = 40552 

BW Util Bottlenecks: 
RCDc_limit = 394 
RCDWRc_limit = 0 
WTRc_limit = 0 
RTWc_limit = 0 
CCDLc_limit = 0 
rwq = 0 
CCDLc_limit_alone = 0 
WTRc_limit_alone = 0 
RTWc_limit_alone = 0 

Commands details: 
total_CMD = 49806 
n_nop = 47558 
Read = 2192 
Write = 0 
L2_Alloc = 0 
L2_WB = 0 
n_act = 36 
n_pre = 20 
n_ref = 0 
n_req = 2192 
total_req = 2192 

Dual Bus Interface Util: 
issued_total_row = 56 
issued_total_col = 2192 
Row_Bus_Util =  0.001124 
CoL_Bus_Util = 0.044011 
Either_Row_CoL_Bus_Util = 0.045135 
Issued_on_Two_Bus_Simul_Util = 0.000000 
issued_two_Eff = 0.000000 
queue_avg = 0.498374 


dram_util_bins: 0 0 0 0 0 0 0 0 0 0
dram_eff_bins: 0 0 0 0 0 0 0 0 0 0
mrqq: max=21 avg=0.498374
Memory Partition 3: 
Cache L2_bank_006:
MSHR contents

Cache L2_bank_007:
MSHR contents

In Dram Latency Queue (total = 0): 
DRAM[3]: 16 bks, busW=2 BL=16 CL=20, tRRD=10 tCCD=4, tRCD=20 tRAS=50 tRP=20 tRC=62
n_cmd=49806 n_nop=47558 n_act=36 n_pre=20 n_ref_event=0 n_req=2192 n_rd=2192 n_rd_L2_A=0 n_write=0 n_wr_bk=0 bw_util=0.176
n_activity=12102 dram_eff=0.7245
bk0: 180a 49217i bk1: 180a 48670i bk2: 148a 49335i bk3: 148a 49067i bk4: 128a 49385i bk5: 128a 49007i bk6: 128a 49394i bk7: 128a 49036i bk8: 128a 49379i bk9: 128a 49099i bk10: 128a 49414i bk11: 128a 49070i bk12: 128a 49423i bk13: 128a 49222i bk14: 128a 49320i bk15: 128a 49128i 

------------------------------------------------------------------------

Row_Buffer_Locality = 0.990876
Row_Buffer_Locality_read = 0.990876
Row_Buffer_Locality_write = -nan
Bank_Level_Parallism = 1.484455
Bank_Level_Parallism_Col = 0.984772
Bank_Level_Parallism_Ready = 1.429093
write_to_read_ratio_blp_rw_average = 0.000000
GrpLevelPara = 0.000000 

BW Util details:
bwutil = 0.176043 
total_CMD = 49806 
util_bw = 8768 
Wasted_Col = 307 
Wasted_Row = 173 
Idle = 40558 

BW Util Bottlenecks: 
RCDc_limit = 402 
RCDWRc_limit = 0 
WTRc_limit = 0 
RTWc_limit = 0 
CCDLc_limit = 0 
rwq = 0 
CCDLc_limit_alone = 0 
WTRc_limit_alone = 0 
RTWc_limit_alone = 0 

Commands details: 
total_CMD = 49806 
n_nop = 47558 
Read = 2192 
Write = 0 
L2_Alloc = 0 
L2_WB = 0 
n_act = 36 
n_pre = 20 
n_ref = 0 
n_req = 2192 
total_req = 2192 

Dual Bus Interface Util: 
issued_total_row = 56 
issued_total_col = 2192 
Row_Bus_Util =  0.001124 
CoL_Bus_Util = 0.044011 
Either_Row_CoL_Bus_Util = 0.045135 
Issued_on_Two_Bus_Simul_Util = 0.000000 
issued_two_Eff = 0.000000 
queue_avg = 0.596213 


dram_util_bins: 0 0 0 0 0 0 0 0 0 0
dram_eff_bins: 0 0 0 0 0 0 0 0 0 0
mrqq: max=24 avg=0.596213
Memory Partition 4: 
Cache L2_bank_008:
MSHR contents

Cache L2_bank_009:
MSHR contents

In Dram Latency Queue (total = 0): 
DRAM[4]: 16 bks, busW=2 BL=16 CL=20, tRRD=10 tCCD=4, tRCD=20 tRAS=50 tRP=20 tRC=62
n_cmd=49806 n_nop=47558 n_act=36 n_pre=20 n_ref_event=0 n_req=2192 n_rd=2192 n_rd_L2_A=0 n_write=0 n_wr_bk=0 bw_util=0.176
n_activity=12043 dram_eff=0.7281
bk0: 180a 49271i bk1: 180a 48823i bk2: 148a 49293i bk3: 148a 49043i bk4: 128a 49386i bk5: 128a 49020i bk6: 128a 49360i bk7: 128a 49043i bk8: 128a 49367i bk9: 128a 49091i bk10: 128a 49372i bk11: 128a 49061i bk12: 128a 49439i bk13: 128a 49124i bk14: 128a 49369i bk15: 128a 49127i 

------------------------------------------------------------------------

Row_Buffer_Locality = 0.990876
Row_Buffer_Locality_read = 0.990876
Row_Buffer_Locality_write = -nan
Bank_Level_Parallism = 1.459297
Bank_Level_Parallism_Col = 1.441657
Bank_Level_Parallism_Ready = 1.412409
write_to_read_ratio_blp_rw_average = 0.000000
GrpLevelPara = 1.441657 

BW Util details:
bwutil = 0.176043 
total_CMD = 49806 
util_bw = 8768 
Wasted_Col = 327 
Wasted_Row = 218 
Idle = 40493 

BW Util Bottlenecks: 
RCDc_limit = 424 
RCDWRc_limit = 0 
WTRc_limit = 0 
RTWc_limit = 0 
CCDLc_limit = 0 
rwq = 0 
CCDLc_limit_alone = 0 
WTRc_limit_alone = 0 
RTWc_limit_alone = 0 

Commands details: 
total_CMD = 49806 
n_nop = 47558 
Read = 2192 
Write = 0 
L2_Alloc = 0 
L2_WB = 0 
n_act = 36 
n_pre = 20 
n_ref = 0 
n_req = 2192 
total_req = 2192 

Dual Bus Interface Util: 
issued_total_row = 56 
issued_total_col = 2192 
Row_Bus_Util =  0.001124 
CoL_Bus_Util = 0.044011 
Either_Row_CoL_Bus_Util = 0.045135 
Issued_on_Two_Bus_Simul_Util = 0.000000 
issued_two_Eff = 0.000000 
queue_avg = 0.566438 


dram_util_bins: 0 0 0 0 0 0 0 0 0 0
dram_eff_bins: 0 0 0 0 0 0 0 0 0 0
mrqq: max=19 avg=0.566438
Memory Partition 5: 
Cache L2_bank_010:
MSHR contents

Cache L2_bank_011:
MSHR contents

In Dram Latency Queue (total = 0): 
DRAM[5]: 16 bks, busW=2 BL=16 CL=20, tRRD=10 tCCD=4, tRCD=20 tRAS=50 tRP=20 tRC=62
n_cmd=49806 n_nop=47558 n_act=36 n_pre=20 n_ref_event=0 n_req=2192 n_rd=2192 n_rd_L2_A=0 n_write=0 n_wr_bk=0 bw_util=0.176
n_activity=12131 dram_eff=0.7228
bk0: 180a 49254i bk1: 180a 48832i bk2: 148a 49325i bk3: 148a 49054i bk4: 128a 49375i bk5: 128a 48956i bk6: 128a 49385i bk7: 128a 49041i bk8: 128a 49426i bk9: 128a 49026i bk10: 128a 49432i bk11: 128a 49202i bk12: 128a 49407i bk13: 128a 49166i bk14: 128a 49399i bk15: 128a 49042i 

------------------------------------------------------------------------

Row_Buffer_Locality = 0.990876
Row_Buffer_Locality_read = 0.990876
Row_Buffer_Locality_write = -nan
Bank_Level_Parallism = 1.442790
Bank_Level_Parallism_Col = 1.426090
Bank_Level_Parallism_Ready = 1.396717
write_to_read_ratio_blp_rw_average = 0.000000
GrpLevelPara = 1.426090 

BW Util details:
bwutil = 0.176043 
total_CMD = 49806 
util_bw = 8768 
Wasted_Col = 296 
Wasted_Row = 196 
Idle = 40546 

BW Util Bottlenecks: 
RCDc_limit = 361 
RCDWRc_limit = 0 
WTRc_limit = 0 
RTWc_limit = 0 
CCDLc_limit = 0 
rwq = 0 
CCDLc_limit_alone = 0 
WTRc_limit_alone = 0 
RTWc_limit_alone = 0 

Commands details: 
total_CMD = 49806 
n_nop = 47558 
Read = 2192 
Write = 0 
L2_Alloc = 0 
L2_WB = 0 
n_act = 36 
n_pre = 20 
n_ref = 0 
n_req = 2192 
total_req = 2192 

Dual Bus Interface Util: 
issued_total_row = 56 
issued_total_col = 2192 
Row_Bus_Util =  0.001124 
CoL_Bus_Util = 0.044011 
Either_Row_CoL_Bus_Util = 0.045135 
Issued_on_Two_Bus_Simul_Util = 0.000000 
issued_two_Eff = 0.000000 
queue_avg = 0.531663 


dram_util_bins: 0 0 0 0 0 0 0 0 0 0
dram_eff_bins: 0 0 0 0 0 0 0 0 0 0
mrqq: max=22 avg=0.531663
Memory Partition 6: 
Cache L2_bank_012:
MSHR contents

Cache L2_bank_013:
MSHR contents

In Dram Latency Queue (total = 0): 
DRAM[6]: 16 bks, busW=2 BL=16 CL=20, tRRD=10 tCCD=4, tRCD=20 tRAS=50 tRP=20 tRC=62
n_cmd=49806 n_nop=47558 n_act=36 n_pre=20 n_ref_event=0 n_req=2192 n_rd=2192 n_rd_L2_A=0 n_write=0 n_wr_bk=0 bw_util=0.176
n_activity=12213 dram_eff=0.7179
bk0: 180a 49204i bk1: 180a 48702i bk2: 148a 49315i bk3: 148a 49038i bk4: 128a 49235i bk5: 128a 48953i bk6: 128a 49368i bk7: 128a 49044i bk8: 128a 49440i bk9: 128a 49122i bk10: 128a 49400i bk11: 128a 49136i bk12: 128a 49454i bk13: 128a 49187i bk14: 128a 49365i bk15: 128a 49123i 

------------------------------------------------------------------------

Row_Buffer_Locality = 0.990876
Row_Buffer_Locality_read = 0.990876
Row_Buffer_Locality_write = -nan
Bank_Level_Parallism = 1.456892
Bank_Level_Parallism_Col = 1.441513
Bank_Level_Parallism_Ready = 1.413400
write_to_read_ratio_blp_rw_average = 0.000000
GrpLevelPara = 1.441513 

BW Util details:
bwutil = 0.176043 
total_CMD = 49806 
util_bw = 8768 
Wasted_Col = 339 
Wasted_Row = 218 
Idle = 40481 

BW Util Bottlenecks: 
RCDc_limit = 415 
RCDWRc_limit = 0 
WTRc_limit = 0 
RTWc_limit = 0 
CCDLc_limit = 0 
rwq = 0 
CCDLc_limit_alone = 0 
WTRc_limit_alone = 0 
RTWc_limit_alone = 0 

Commands details: 
total_CMD = 49806 
n_nop = 47558 
Read = 2192 
Write = 0 
L2_Alloc = 0 
L2_WB = 0 
n_act = 36 
n_pre = 20 
n_ref = 0 
n_req = 2192 
total_req = 2192 

Dual Bus Interface Util: 
issued_total_row = 56 
issued_total_col = 2192 
Row_Bus_Util =  0.001124 
CoL_Bus_Util = 0.044011 
Either_Row_CoL_Bus_Util = 0.045135 
Issued_on_Two_Bus_Simul_Util = 0.000000 
issued_two_Eff = 0.000000 
queue_avg = 0.646890 


dram_util_bins: 0 0 0 0 0 0 0 0 0 0
dram_eff_bins: 0 0 0 0 0 0 0 0 0 0
mrqq: max=23 avg=0.64689
Memory Partition 7: 
Cache L2_bank_014:
MSHR contents

Cache L2_bank_015:
MSHR contents

In Dram Latency Queue (total = 0): 
DRAM[7]: 16 bks, busW=2 BL=16 CL=20, tRRD=10 tCCD=4, tRCD=20 tRAS=50 tRP=20 tRC=62
n_cmd=49806 n_nop=47566 n_act=36 n_pre=20 n_ref_event=0 n_req=2184 n_rd=2184 n_rd_L2_A=0 n_write=0 n_wr_bk=0 bw_util=0.1754
n_activity=12125 dram_eff=0.7205
bk0: 180a 49209i bk1: 180a 48784i bk2: 144a 49344i bk3: 144a 49017i bk4: 128a 49313i bk5: 128a 48998i bk6: 128a 49410i bk7: 128a 49062i bk8: 128a 49397i bk9: 128a 49129i bk10: 128a 49369i bk11: 128a 49045i bk12: 128a 49429i bk13: 128a 49193i bk14: 128a 49346i bk15: 128a 49150i 

------------------------------------------------------------------------

Row_Buffer_Locality = 0.990842
Row_Buffer_Locality_read = 0.990842
Row_Buffer_Locality_write = -nan
Bank_Level_Parallism = 1.461149
Bank_Level_Parallism_Col = 1.443865
Bank_Level_Parallism_Ready = 1.417010
write_to_read_ratio_blp_rw_average = 0.000000
GrpLevelPara = 1.443865 

BW Util details:
bwutil = 0.175401 
total_CMD = 49806 
util_bw = 8736 
Wasted_Col = 362 
Wasted_Row = 200 
Idle = 40508 

BW Util Bottlenecks: 
RCDc_limit = 423 
RCDWRc_limit = 0 
WTRc_limit = 0 
RTWc_limit = 0 
CCDLc_limit = 0 
rwq = 0 
CCDLc_limit_alone = 0 
WTRc_limit_alone = 0 
RTWc_limit_alone = 0 

Commands details: 
total_CMD = 49806 
n_nop = 47566 
Read = 2184 
Write = 0 
L2_Alloc = 0 
L2_WB = 0 
n_act = 36 
n_pre = 20 
n_ref = 0 
n_req = 2184 
total_req = 2184 

Dual Bus Interface Util: 
issued_total_row = 56 
issued_total_col = 2184 
Row_Bus_Util =  0.001124 
CoL_Bus_Util = 0.043850 
Either_Row_CoL_Bus_Util = 0.044975 
Issued_on_Two_Bus_Simul_Util = 0.000000 
issued_two_Eff = 0.000000 
queue_avg = 0.502490 


dram_util_bins: 0 0 0 0 0 0 0 0 0 0
dram_eff_bins: 0 0 0 0 0 0 0 0 0 0
mrqq: max=18 avg=0.50249
Memory Partition 8: 
Cache L2_bank_016:
MSHR contents

Cache L2_bank_017:
MSHR contents

In Dram Latency Queue (total = 0): 
DRAM[8]: 16 bks, busW=2 BL=16 CL=20, tRRD=10 tCCD=4, tRCD=20 tRAS=50 tRP=20 tRC=62
n_cmd=49806 n_nop=47566 n_act=36 n_pre=20 n_ref_event=0 n_req=2184 n_rd=2184 n_rd_L2_A=0 n_write=0 n_wr_bk=0 bw_util=0.1754
n_activity=12388 dram_eff=0.7052
bk0: 180a 49278i bk1: 180a 48887i bk2: 144a 49325i bk3: 144a 49034i bk4: 128a 49333i bk5: 128a 49046i bk6: 128a 49371i bk7: 128a 49071i bk8: 128a 49404i bk9: 128a 49157i bk10: 128a 49395i bk11: 128a 49149i bk12: 128a 49462i bk13: 128a 49287i bk14: 128a 49389i bk15: 128a 49171i 

------------------------------------------------------------------------

Row_Buffer_Locality = 0.990842
Row_Buffer_Locality_read = 0.990842
Row_Buffer_Locality_write = -nan
Bank_Level_Parallism = 1.427866
Bank_Level_Parallism_Col = 1.411742
Bank_Level_Parallism_Ready = 1.377574
write_to_read_ratio_blp_rw_average = 0.000000
GrpLevelPara = 1.411742 

BW Util details:
bwutil = 0.175401 
total_CMD = 49806 
util_bw = 8736 
Wasted_Col = 332 
Wasted_Row = 209 
Idle = 40529 

BW Util Bottlenecks: 
RCDc_limit = 411 
RCDWRc_limit = 0 
WTRc_limit = 0 
RTWc_limit = 0 
CCDLc_limit = 0 
rwq = 0 
CCDLc_limit_alone = 0 
WTRc_limit_alone = 0 
RTWc_limit_alone = 0 

Commands details: 
total_CMD = 49806 
n_nop = 47566 
Read = 2184 
Write = 0 
L2_Alloc = 0 
L2_WB = 0 
n_act = 36 
n_pre = 20 
n_ref = 0 
n_req = 2184 
total_req = 2184 

Dual Bus Interface Util: 
issued_total_row = 56 
issued_total_col = 2184 
Row_Bus_Util =  0.001124 
CoL_Bus_Util = 0.043850 
Either_Row_CoL_Bus_Util = 0.044975 
Issued_on_Two_Bus_Simul_Util = 0.000000 
issued_two_Eff = 0.000000 
queue_avg = 0.410874 


dram_util_bins: 0 0 0 0 0 0 0 0 0 0
dram_eff_bins: 0 0 0 0 0 0 0 0 0 0
mrqq: max=22 avg=0.410874
Memory Partition 9: 
Cache L2_bank_018:
MSHR contents

Cache L2_bank_019:
MSHR contents

In Dram Latency Queue (total = 0): 
DRAM[9]: 16 bks, busW=2 BL=16 CL=20, tRRD=10 tCCD=4, tRCD=20 tRAS=50 tRP=20 tRC=62
n_cmd=49806 n_nop=47566 n_act=36 n_pre=20 n_ref_event=0 n_req=2184 n_rd=2184 n_rd_L2_A=0 n_write=0 n_wr_bk=0 bw_util=0.1754
n_activity=12570 dram_eff=0.695
bk0: 180a 49260i bk1: 180a 48851i bk2: 144a 49369i bk3: 144a 49140i bk4: 128a 49332i bk5: 128a 49102i bk6: 128a 49447i bk7: 128a 49187i bk8: 128a 49409i bk9: 128a 49259i bk10: 128a 49438i bk11: 128a 49211i bk12: 128a 49467i bk13: 128a 49217i bk14: 128a 49446i bk15: 128a 49231i 

------------------------------------------------------------------------

Row_Buffer_Locality = 0.990842
Row_Buffer_Locality_read = 0.990842
Row_Buffer_Locality_write = -nan
Bank_Level_Parallism = 1.372879
Bank_Level_Parallism_Col = 1.349756
Bank_Level_Parallism_Ready = 1.319597
write_to_read_ratio_blp_rw_average = 0.000000
GrpLevelPara = 1.349756 

BW Util details:
bwutil = 0.175401 
total_CMD = 49806 
util_bw = 8736 
Wasted_Col = 324 
Wasted_Row = 181 
Idle = 40565 

BW Util Bottlenecks: 
RCDc_limit = 423 
RCDWRc_limit = 0 
WTRc_limit = 0 
RTWc_limit = 0 
CCDLc_limit = 0 
rwq = 0 
CCDLc_limit_alone = 0 
WTRc_limit_alone = 0 
RTWc_limit_alone = 0 

Commands details: 
total_CMD = 49806 
n_nop = 47566 
Read = 2184 
Write = 0 
L2_Alloc = 0 
L2_WB = 0 
n_act = 36 
n_pre = 20 
n_ref = 0 
n_req = 2184 
total_req = 2184 

Dual Bus Interface Util: 
issued_total_row = 56 
issued_total_col = 2184 
Row_Bus_Util =  0.001124 
CoL_Bus_Util = 0.043850 
Either_Row_CoL_Bus_Util = 0.044975 
Issued_on_Two_Bus_Simul_Util = 0.000000 
issued_two_Eff = 0.000000 
queue_avg = 0.394471 


dram_util_bins: 0 0 0 0 0 0 0 0 0 0
dram_eff_bins: 0 0 0 0 0 0 0 0 0 0
mrqq: max=21 avg=0.394471
Memory Partition 10: 
Cache L2_bank_020:
MSHR contents

Cache L2_bank_021:
MSHR contents

In Dram Latency Queue (total = 0): 
DRAM[10]: 16 bks, busW=2 BL=16 CL=20, tRRD=10 tCCD=4, tRCD=20 tRAS=50 tRP=20 tRC=62
n_cmd=49806 n_nop=47566 n_act=36 n_pre=20 n_ref_event=0 n_req=2184 n_rd=2184 n_rd_L2_A=0 n_write=0 n_wr_bk=0 bw_util=0.1754
n_activity=11998 dram_eff=0.7281
bk0: 180a 49274i bk1: 180a 48836i bk2: 144a 49304i bk3: 144a 48947i bk4: 128a 49255i bk5: 128a 48953i bk6: 128a 49401i bk7: 128a 49097i bk8: 128a 49388i bk9: 128a 49107i bk10: 128a 49405i bk11: 128a 49079i bk12: 128a 49388i bk13: 128a 49137i bk14: 128a 49430i bk15: 128a 49137i 

------------------------------------------------------------------------

Row_Buffer_Locality = 0.990842
Row_Buffer_Locality_read = 0.990842
Row_Buffer_Locality_write = -nan
Bank_Level_Parallism = 1.485287
Bank_Level_Parallism_Col = 1.463427
Bank_Level_Parallism_Ready = 1.426545
write_to_read_ratio_blp_rw_average = 0.000000
GrpLevelPara = 1.463427 

BW Util details:
bwutil = 0.175401 
total_CMD = 49806 
util_bw = 8736 
Wasted_Col = 307 
Wasted_Row = 170 
Idle = 40593 

BW Util Bottlenecks: 
RCDc_limit = 420 
RCDWRc_limit = 0 
WTRc_limit = 0 
RTWc_limit = 0 
CCDLc_limit = 0 
rwq = 0 
CCDLc_limit_alone = 0 
WTRc_limit_alone = 0 
RTWc_limit_alone = 0 

Commands details: 
total_CMD = 49806 
n_nop = 47566 
Read = 2184 
Write = 0 
L2_Alloc = 0 
L2_WB = 0 
n_act = 36 
n_pre = 20 
n_ref = 0 
n_req = 2184 
total_req = 2184 

Dual Bus Interface Util: 
issued_total_row = 56 
issued_total_col = 2184 
Row_Bus_Util =  0.001124 
CoL_Bus_Util = 0.043850 
Either_Row_CoL_Bus_Util = 0.044975 
Issued_on_Two_Bus_Simul_Util = 0.000000 
issued_two_Eff = 0.000000 
queue_avg = 0.534333 


dram_util_bins: 0 0 0 0 0 0 0 0 0 0
dram_eff_bins: 0 0 0 0 0 0 0 0 0 0
mrqq: max=17 avg=0.534333
Memory Partition 11: 
Cache L2_bank_022:
MSHR contents

Cache L2_bank_023:
MSHR contents

In Dram Latency Queue (total = 0): 
DRAM[11]: 16 bks, busW=2 BL=16 CL=20, tRRD=10 tCCD=4, tRCD=20 tRAS=50 tRP=20 tRC=62
n_cmd=49806 n_nop=47567 n_act=36 n_pre=20 n_ref_event=0 n_req=2184 n_rd=2184 n_rd_L2_A=0 n_write=0 n_wr_bk=0 bw_util=0.1754
n_activity=12021 dram_eff=0.7267
bk0: 180a 49227i bk1: 180a 48780i bk2: 144a 49344i bk3: 144a 49131i bk4: 128a 49259i bk5: 128a 48934i bk6: 128a 49451i bk7: 128a 49096i bk8: 128a 49438i bk9: 128a 49137i bk10: 128a 49381i bk11: 128a 49164i bk12: 128a 49472i bk13: 128a 49243i bk14: 128a 49414i bk15: 128a 49134i 

------------------------------------------------------------------------

Row_Buffer_Locality = 0.990842
Row_Buffer_Locality_read = 0.990842
Row_Buffer_Locality_write = -nan
Bank_Level_Parallism = 1.446641
Bank_Level_Parallism_Col = 1.410816
Bank_Level_Parallism_Ready = 1.381693
write_to_read_ratio_blp_rw_average = 0.000000
GrpLevelPara = 1.410816 

BW Util details:
[...]
Row_Buffer_Locality_write = -nan
Bank_Level_Parallism = 1.437601
Bank_Level_Parallism_Col = 1.398759
Bank_Level_Parallism_Ready = 1.364994
write_to_read_ratio_blp_rw_average = 0.000000
GrpLevelPara = 1.398759 

BW Util details:
bwutil = 0.170159 
total_CMD = 245464 
util_bw = 41768 
Wasted_Col = 1414 
Wasted_Row = 1234 
Idle = 201048 

BW Util Bottlenecks: 
RCDc_limit = 1770 
RCDWRc_limit = 0 
WTRc_limit = 0 
RTWc_limit = 0 
CCDLc_limit = 0 
rwq = 0 
CCDLc_limit_alone = 0 
WTRc_limit_alone = 0 
RTWc_limit_alone = 0 

Commands details: 
total_CMD = 245464 
n_nop = 234695 
Read = 10442 
Write = 0 
L2_Alloc = 0 
L2_WB = 0 
n_act = 172 
n_pre = 156 
n_ref = 0 
n_req = 10442 
total_req = 10442 

Dual Bus Interface Util: 
issued_total_row = 328 
issued_total_col = 10442 
Row_Bus_Util =  0.001336 
CoL_Bus_Util = 0.042540 
Either_Row_CoL_Bus_Util = 0.043872 
Issued_on_Two_Bus_Simul_Util = 0.000004 
issued_two_Eff = 0.000093 
queue_avg = 0.462907 


dram_util_bins: 0 0 0 0 0 0 0 0 0 0
dram_eff_bins: 0 0 0 0 0 0 0 0 0 0
mrqq: max=23 avg=0.462907
Memory Partition 6: 
Cache L2_bank_012:
MSHR contents

Cache L2_bank_013:
MSHR contents

In Dram Latency Queue (total = 0): 
DRAM[6]: 16 bks, busW=2 BL=16 CL=20, tRRD=10 tCCD=4, tRCD=20 tRAS=50 tRP=20 tRC=62
n_cmd=245464 n_nop=234693 n_act=172 n_pre=156 n_ref_event=0 n_req=10443 n_rd=10443 n_rd_L2_A=0 n_write=0 n_wr_bk=0 bw_util=0.1702
n_activity=59577 dram_eff=0.7011
bk0: 695a 243034i bk1: 695a 241684i bk2: 675a 243212i bk3: 674a 241816i bk4: 652a 243125i bk5: 652a 241733i bk6: 640a 243139i bk7: 640a 241758i bk8: 640a 243434i bk9: 640a 242089i bk10: 640a 243338i bk11: 640a 241942i bk12: 640a 243384i bk13: 640a 242286i bk14: 640a 243296i bk15: 640a 242048i 

------------------------------------------------------------------------

Row_Buffer_Locality = 0.985062
Row_Buffer_Locality_read = 0.985062
Row_Buffer_Locality_write = -nan
Bank_Level_Parallism = 1.460686
Bank_Level_Parallism_Col = 1.430115
Bank_Level_Parallism_Ready = 1.395233
write_to_read_ratio_blp_rw_average = 0.000000
GrpLevelPara = 1.430115 

BW Util details:
bwutil = 0.170176 
total_CMD = 245464 
util_bw = 41772 
Wasted_Col = 1570 
Wasted_Row = 1406 
Idle = 200716 

BW Util Bottlenecks: 
RCDc_limit = 1951 
RCDWRc_limit = 0 
WTRc_limit = 0 
RTWc_limit = 0 
CCDLc_limit = 0 
rwq = 0 
CCDLc_limit_alone = 0 
WTRc_limit_alone = 0 
RTWc_limit_alone = 0 

Commands details: 
total_CMD = 245464 
n_nop = 234693 
Read = 10443 
Write = 0 
L2_Alloc = 0 
L2_WB = 0 
n_act = 172 
n_pre = 156 
n_ref = 0 
n_req = 10443 
total_req = 10443 

Dual Bus Interface Util: 
issued_total_row = 328 
issued_total_col = 10443 
Row_Bus_Util =  0.001336 
CoL_Bus_Util = 0.042544 
Either_Row_CoL_Bus_Util = 0.043880 
Issued_on_Two_Bus_Simul_Util = 0.000000 
issued_two_Eff = 0.000000 
queue_avg = 0.496386 


dram_util_bins: 0 0 0 0 0 0 0 0 0 0
dram_eff_bins: 0 0 0 0 0 0 0 0 0 0
mrqq: max=23 avg=0.496386
Memory Partition 7: 
Cache L2_bank_014:
MSHR contents

Cache L2_bank_015:
MSHR contents

In Dram Latency Queue (total = 0): 
DRAM[7]: 16 bks, busW=2 BL=16 CL=20, tRRD=10 tCCD=4, tRCD=20 tRAS=50 tRP=20 tRC=62
n_cmd=245464 n_nop=234692 n_act=172 n_pre=156 n_ref_event=0 n_req=10444 n_rd=10444 n_rd_L2_A=0 n_write=0 n_wr_bk=0 bw_util=0.1702
n_activity=59258 dram_eff=0.705
bk0: 695a 243153i bk1: 696a 241870i bk2: 674a 243270i bk3: 675a 241839i bk4: 652a 243082i bk5: 652a 241659i bk6: 640a 243206i bk7: 640a 241816i bk8: 640a 243157i bk9: 640a 241967i bk10: 640a 243335i bk11: 640a 241932i bk12: 640a 243467i bk13: 640a 242242i bk14: 640a 243211i bk15: 640a 241830i 

------------------------------------------------------------------------

Row_Buffer_Locality = 0.985063
Row_Buffer_Locality_read = 0.985063
Row_Buffer_Locality_write = -nan
Bank_Level_Parallism = 1.466033
Bank_Level_Parallism_Col = 1.436230
Bank_Level_Parallism_Ready = 1.402565
write_to_read_ratio_blp_rw_average = 0.000000
GrpLevelPara = 1.436230 

BW Util details:
bwutil = 0.170192 
total_CMD = 245464 
util_bw = 41776 
Wasted_Col = 1619 
Wasted_Row = 1391 
Idle = 200678 

BW Util Bottlenecks: 
RCDc_limit = 1992 
RCDWRc_limit = 0 
WTRc_limit = 0 
RTWc_limit = 0 
CCDLc_limit = 0 
rwq = 0 
CCDLc_limit_alone = 0 
WTRc_limit_alone = 0 
RTWc_limit_alone = 0 

Commands details: 
total_CMD = 245464 
n_nop = 234692 
Read = 10444 
Write = 0 
L2_Alloc = 0 
L2_WB = 0 
n_act = 172 
n_pre = 156 
n_ref = 0 
n_req = 10444 
total_req = 10444 

Dual Bus Interface Util: 
issued_total_row = 328 
issued_total_col = 10444 
Row_Bus_Util =  0.001336 
CoL_Bus_Util = 0.042548 
Either_Row_CoL_Bus_Util = 0.043884 
Issued_on_Two_Bus_Simul_Util = 0.000000 
issued_two_Eff = 0.000000 
queue_avg = 0.477879 


dram_util_bins: 0 0 0 0 0 0 0 0 0 0
dram_eff_bins: 0 0 0 0 0 0 0 0 0 0
mrqq: max=20 avg=0.477879
Memory Partition 8: 
Cache L2_bank_016:
MSHR contents

Cache L2_bank_017:
MSHR contents

In Dram Latency Queue (total = 0): 
DRAM[8]: 16 bks, busW=2 BL=16 CL=20, tRRD=10 tCCD=4, tRCD=20 tRAS=50 tRP=20 tRC=62
n_cmd=245464 n_nop=234694 n_act=172 n_pre=156 n_ref_event=0 n_req=10442 n_rd=10442 n_rd_L2_A=0 n_write=0 n_wr_bk=0 bw_util=0.1702
n_activity=60083 dram_eff=0.6952
bk0: 695a 243256i bk1: 695a 241938i bk2: 674a 243215i bk3: 674a 241911i bk4: 652a 243013i bk5: 652a 241750i bk6: 640a 243383i bk7: 640a 241754i bk8: 640a 243371i bk9: 640a 241877i bk10: 640a 243354i bk11: 640a 242018i bk12: 640a 243481i bk13: 640a 242253i bk14: 640a 243301i bk15: 640a 242287i 

------------------------------------------------------------------------

Row_Buffer_Locality = 0.985060
Row_Buffer_Locality_read = 0.985060
Row_Buffer_Locality_write = -nan
Bank_Level_Parallism = 1.441221
Bank_Level_Parallism_Col = 1.412338
Bank_Level_Parallism_Ready = 1.382060
write_to_read_ratio_blp_rw_average = 0.000000
GrpLevelPara = 1.412338 

BW Util details:
bwutil = 0.170159 
total_CMD = 245464 
util_bw = 41768 
Wasted_Col = 1681 
Wasted_Row = 1439 
Idle = 200576 

BW Util Bottlenecks: 
RCDc_limit = 2104 
RCDWRc_limit = 0 
WTRc_limit = 0 
RTWc_limit = 0 
CCDLc_limit = 0 
rwq = 0 
CCDLc_limit_alone = 0 
WTRc_limit_alone = 0 
RTWc_limit_alone = 0 

Commands details: 
total_CMD = 245464 
n_nop = 234694 
Read = 10442 
Write = 0 
L2_Alloc = 0 
L2_WB = 0 
n_act = 172 
n_pre = 156 
n_ref = 0 
n_req = 10442 
total_req = 10442 

Dual Bus Interface Util: 
issued_total_row = 328 
issued_total_col = 10442 
Row_Bus_Util =  0.001336 
CoL_Bus_Util = 0.042540 
Either_Row_CoL_Bus_Util = 0.043876 
Issued_on_Two_Bus_Simul_Util = 0.000000 
issued_two_Eff = 0.000000 
queue_avg = 0.447165 


dram_util_bins: 0 0 0 0 0 0 0 0 0 0
dram_eff_bins: 0 0 0 0 0 0 0 0 0 0
mrqq: max=22 avg=0.447165
Memory Partition 9: 
Cache L2_bank_018:
MSHR contents

Cache L2_bank_019:
MSHR contents

In Dram Latency Queue (total = 0): 
DRAM[9]: 16 bks, busW=2 BL=16 CL=20, tRRD=10 tCCD=4, tRCD=20 tRAS=50 tRP=20 tRC=62
n_cmd=245464 n_nop=234692 n_act=172 n_pre=156 n_ref_event=0 n_req=10444 n_rd=10444 n_rd_L2_A=0 n_write=0 n_wr_bk=0 bw_util=0.1702
n_activity=59275 dram_eff=0.7048
bk0: 696a 243180i bk1: 695a 241892i bk2: 675a 243385i bk3: 674a 242170i bk4: 652a 243151i bk5: 652a 241652i bk6: 640a 243466i bk7: 640a 241940i bk8: 640a 243411i bk9: 640a 242022i bk10: 640a 243345i bk11: 640a 242061i bk12: 640a 243483i bk13: 640a 242337i bk14: 640a 243428i bk15: 640a 242230i 

------------------------------------------------------------------------

Row_Buffer_Locality = 0.985063
Row_Buffer_Locality_read = 0.985063
Row_Buffer_Locality_write = -nan
Bank_Level_Parallism = 1.421884
Bank_Level_Parallism_Col = 1.386407
Bank_Level_Parallism_Ready = 1.354749
write_to_read_ratio_blp_rw_average = 0.000000
GrpLevelPara = 1.386407 

BW Util details:
bwutil = 0.170192 
total_CMD = 245464 
util_bw = 41776 
Wasted_Col = 1510 
Wasted_Row = 1305 
Idle = 200873 

BW Util Bottlenecks: 
RCDc_limit = 1920 
RCDWRc_limit = 0 
WTRc_limit = 0 
RTWc_limit = 0 
CCDLc_limit = 0 
rwq = 0 
CCDLc_limit_alone = 0 
WTRc_limit_alone = 0 
RTWc_limit_alone = 0 

Commands details: 
total_CMD = 245464 
n_nop = 234692 
Read = 10444 
Write = 0 
L2_Alloc = 0 
L2_WB = 0 
n_act = 172 
n_pre = 156 
n_ref = 0 
n_req = 10444 
total_req = 10444 

Dual Bus Interface Util: 
issued_total_row = 328 
issued_total_col = 10444 
Row_Bus_Util =  0.001336 
CoL_Bus_Util = 0.042548 
Either_Row_CoL_Bus_Util = 0.043884 
Issued_on_Two_Bus_Simul_Util = 0.000000 
issued_two_Eff = 0.000000 
queue_avg = 0.446664 


dram_util_bins: 0 0 0 0 0 0 0 0 0 0
dram_eff_bins: 0 0 0 0 0 0 0 0 0 0
mrqq: max=26 avg=0.446664
Memory Partition 10: 
Cache L2_bank_020:
MSHR contents

Cache L2_bank_021:
MSHR contents

In Dram Latency Queue (total = 0): 
DRAM[10]: 16 bks, busW=2 BL=16 CL=20, tRRD=10 tCCD=4, tRCD=20 tRAS=50 tRP=20 tRC=62
n_cmd=245464 n_nop=234692 n_act=172 n_pre=156 n_ref_event=0 n_req=10444 n_rd=10444 n_rd_L2_A=0 n_write=0 n_wr_bk=0 bw_util=0.1702
n_activity=58542 dram_eff=0.7136
bk0: 695a 243263i bk1: 696a 241858i bk2: 674a 243164i bk3: 675a 241861i bk4: 652a 242967i bk5: 652a 241437i bk6: 640a 243213i bk7: 640a 241648i bk8: 640a 243182i bk9: 640a 241640i bk10: 640a 243353i bk11: 640a 241889i bk12: 640a 243346i bk13: 640a 242002i bk14: 640a 243477i bk15: 640a 242100i 

------------------------------------------------------------------------

Row_Buffer_Locality = 0.985063
Row_Buffer_Locality_read = 0.985063
Row_Buffer_Locality_write = -nan
Bank_Level_Parallism = 1.476849
Bank_Level_Parallism_Col = 1.445965
Bank_Level_Parallism_Ready = 1.413476
write_to_read_ratio_blp_rw_average = 0.000000
GrpLevelPara = 1.445965 

BW Util details:
bwutil = 0.170192 
total_CMD = 245464 
util_bw = 41776 
Wasted_Col = 1533 
Wasted_Row = 1375 
Idle = 200780 

BW Util Bottlenecks: 
RCDc_limit = 1933 
RCDWRc_limit = 0 
WTRc_limit = 0 
RTWc_limit = 0 
CCDLc_limit = 0 
rwq = 0 
CCDLc_limit_alone = 0 
WTRc_limit_alone = 0 
RTWc_limit_alone = 0 

Commands details: 
total_CMD = 245464 
n_nop = 234692 
Read = 10444 
Write = 0 
L2_Alloc = 0 
L2_WB = 0 
n_act = 172 
n_pre = 156 
n_ref = 0 
n_req = 10444 
total_req = 10444 

Dual Bus Interface Util: 
issued_total_row = 328 
issued_total_col = 10444 
Row_Bus_Util =  0.001336 
CoL_Bus_Util = 0.042548 
Either_Row_CoL_Bus_Util = 0.043884 
Issued_on_Two_Bus_Simul_Util = 0.000000 
issued_two_Eff = 0.000000 
queue_avg = 0.476974 


dram_util_bins: 0 0 0 0 0 0 0 0 0 0
dram_eff_bins: 0 0 0 0 0 0 0 0 0 0
mrqq: max=23 avg=0.476974
Memory Partition 11: 
Cache L2_bank_022:
MSHR contents

Cache L2_bank_023:
MSHR contents

In Dram Latency Queue (total = 0): 
DRAM[11]: 16 bks, busW=2 BL=16 CL=20, tRRD=10 tCCD=4, tRCD=20 tRAS=50 tRP=20 tRC=62
n_cmd=245464 n_nop=234696 n_act=172 n_pre=156 n_ref_event=0 n_req=10442 n_rd=10442 n_rd_L2_A=0 n_write=0 n_wr_bk=0 bw_util=0.1702
n_activity=58765 dram_eff=0.7108
bk0: 695a 243264i bk1: 695a 241879i bk2: 674a 243330i bk3: 674a 242157i bk4: 652a 243186i bk5: 652a 241571i bk6: 640a 243262i bk7: 640a 241804i bk8: 640a 243436i bk9: 640a 241980i bk10: 640a 243374i bk11: 640a 242221i bk12: 640a 243500i bk13: 640a 242167i bk14: 640a 243419i bk15: 640a 242168i 

------------------------------------------------------------------------

Row_Buffer_Locality = 0.985060
Row_Buffer_Locality_read = 0.985060
Row_Buffer_Locality_write = -nan
Bank_Level_Parallism = 1.441105
Bank_Level_Parallism_Col = 1.400964
Bank_Level_Parallism_Ready = 1.366657
write_to_read_ratio_blp_rw_average = 0.000000
GrpLevelPara = 1.400964 

BW Util details:
bwutil = 0.170159 
total_CMD = 245464 
util_bw = 41768 
Wasted_Col = 1499 
Wasted_Row = 1173 
Idle = 201024 

BW Util Bottlenecks: 
RCDc_limit = 1870 
RCDWRc_limit = 0 
WTRc_limit = 0 
RTWc_limit = 0 
CCDLc_limit = 0 
rwq = 0 
CCDLc_limit_alone = 0 
WTRc_limit_alone = 0 
RTWc_limit_alone = 0 

Commands details: 
total_CMD = 245464 
n_nop = 234696 
Read = 10442 
Write = 0 
L2_Alloc = 0 
L2_WB = 0 
n_act = 172 
n_pre = 156 
n_ref = 0 
n_req = 10442 
total_req = 10442 

Dual Bus Interface Util: 
issued_total_row = 328 
issued_total_col = 10442 
Row_Bus_Util =  0.001336 
CoL_Bus_Util = 0.042540 
Either_Row_CoL_Bus_Util = 0.043868 
Issued_on_Two_Bus_Simul_Util = 0.000008 
issued_two_Eff = 0.000186 
queue_avg = 0.447153 


dram_util_bins: 0 0 0 0 0 0 0 0 0 0
dram_eff_bins: 0 0 0 0 0 0 0 0 0 0
mrqq: max=24 avg=0.447153

========= L2 cache stats =========
L2_cache_bank[0]: Access = 6416, Miss = 5292, Miss_rate = 0.825, Pending_hits = 575, Reservation_fails = 0
L2_cache_bank[1]: Access = 6400, Miss = 5286, Miss_rate = 0.826, Pending_hits = 566, Reservation_fails = 0
L2_cache_bank[2]: Access = 6431, Miss = 5288, Miss_rate = 0.822, Pending_hits = 578, Reservation_fails = 0
L2_cache_bank[3]: Access = 6423, Miss = 5288, Miss_rate = 0.823, Pending_hits = 574, Reservation_fails = 0
L2_cache_bank[4]: Access = 6407, Miss = 5290, Miss_rate = 0.826, Pending_hits = 550, Reservation_fails = 0
L2_cache_bank[5]: Access = 6403, Miss = 5288, Miss_rate = 0.826, Pending_hits = 559, Reservation_fails = 0
L2_cache_bank[6]: Access = 6432, Miss = 5288, Miss_rate = 0.822, Pending_hits = 604, Reservation_fails = 0
L2_cache_bank[7]: Access = 6416, Miss = 5286, Miss_rate = 0.824, Pending_hits = 572, Reservation_fails = 0
L2_cache_bank[8]: Access = 6411, Miss = 5286, Miss_rate = 0.825, Pending_hits = 551, Reservation_fails = 0
L2_cache_bank[9]: Access = 6429, Miss = 5288, Miss_rate = 0.823, Pending_hits = 570, Reservation_fails = 0
L2_cache_bank[10]: Access = 6427, Miss = 5286, Miss_rate = 0.822, Pending_hits = 568, Reservation_fails = 0
L2_cache_bank[11]: Access = 6404, Miss = 5286, Miss_rate = 0.825, Pending_hits = 548, Reservation_fails = 0
L2_cache_bank[12]: Access = 6418, Miss = 5288, Miss_rate = 0.824, Pending_hits = 557, Reservation_fails = 0
L2_cache_bank[13]: Access = 6434, Miss = 5286, Miss_rate = 0.822, Pending_hits = 583, Reservation_fails = 0
L2_cache_bank[14]: Access = 6407, Miss = 5286, Miss_rate = 0.825, Pending_hits = 559, Reservation_fails = 0
L2_cache_bank[15]: Access = 6416, Miss = 5290, Miss_rate = 0.825, Pending_hits = 549, Reservation_fails = 0
L2_cache_bank[16]: Access = 6432, Miss = 5286, Miss_rate = 0.822, Pending_hits = 581, Reservation_fails = 0
L2_cache_bank[17]: Access = 6419, Miss = 5286, Miss_rate = 0.823, Pending_hits = 570, Reservation_fails = 0
L2_cache_bank[18]: Access = 6404, Miss = 5290, Miss_rate = 0.826, Pending_hits = 547, Reservation_fails = 0
L2_cache_bank[19]: Access = 6420, Miss = 5286, Miss_rate = 0.823, Pending_hits = 571, Reservation_fails = 0
L2_cache_bank[20]: Access = 6425, Miss = 5286, Miss_rate = 0.823, Pending_hits = 589, Reservation_fails = 0
L2_cache_bank[21]: Access = 6404, Miss = 5290, Miss_rate = 0.826, Pending_hits = 567, Reservation_fails = 0
L2_cache_bank[22]: Access = 6410, Miss = 5286, Miss_rate = 0.825, Pending_hits = 566, Reservation_fails = 0
L2_cache_bank[23]: Access = 6421, Miss = 5286, Miss_rate = 0.823, Pending_hits = 591, Reservation_fails = 0
L2_total_cache_accesses = 154009
L2_total_cache_misses = 126898
L2_total_cache_miss_rate = 0.8240
L2_total_cache_pending_hits = 13645
L2_total_cache_reservation_fails = 0
L2_total_cache_breakdown:
	L2_cache_stats_breakdown[GLOBAL_ACC_R][HIT] = 7205
	L2_cache_stats_breakdown[GLOBAL_ACC_R][HIT_RESERVED] = 13645
	L2_cache_stats_breakdown[GLOBAL_ACC_R][MISS] = 31251
	L2_cache_stats_breakdown[GLOBAL_ACC_R][RESERVATION_FAIL] = 0
	L2_cache_stats_breakdown[GLOBAL_ACC_R][SECTOR_MISS] = 94073
	L2_cache_stats_breakdown[LOCAL_ACC_R][HIT] = 0
	L2_cache_stats_breakdown[LOCAL_ACC_R][HIT_RESERVED] = 0
	L2_cache_stats_breakdown[LOCAL_ACC_R][MISS] = 0
	L2_cache_stats_breakdown[LOCAL_ACC_R][RESERVATION_FAIL] = 0
	L2_cache_stats_breakdown[LOCAL_ACC_R][SECTOR_MISS] = 0
	L2_cache_stats_breakdown[CONST_ACC_R][HIT] = 0
	L2_cache_stats_breakdown[CONST_ACC_R][HIT_RESERVED] = 0
	L2_cache_stats_breakdown[CONST_ACC_R][MISS] = 0
	L2_cache_stats_breakdown[CONST_ACC_R][RESERVATION_FAIL] = 0
	L2_cache_stats_breakdown[CONST_ACC_R][SECTOR_MISS] = 0
	L2_cache_stats_breakdown[TEXTURE_ACC_R][HIT] = 0
	L2_cache_stats_breakdown[TEXTURE_ACC_R][HIT_RESERVED] = 0
	L2_cache_stats_breakdown[TEXTURE_ACC_R][MISS] = 0
	L2_cache_stats_breakdown[TEXTURE_ACC_R][RESERVATION_FAIL] = 0
	L2_cache_stats_breakdown[TEXTURE_ACC_R][SECTOR_MISS] = 0
	L2_cache_stats_breakdown[GLOBAL_ACC_W][HIT] = 6261
	L2_cache_stats_breakdown[GLOBAL_ACC_W][HIT_RESERVED] = 0
	L2_cache_stats_breakdown[GLOBAL_ACC_W][MISS] = 313
	L2_cache_stats_breakdown[GLOBAL_ACC_W][RESERVATION_FAIL] = 0
	L2_cache_stats_breakdown[GLOBAL_ACC_W][SECTOR_MISS] = 1261
	L2_cache_stats_breakdown[LOCAL_ACC_W][HIT] = 0
	L2_cache_stats_breakdown[LOCAL_ACC_W][HIT_RESERVED] = 0
	L2_cache_stats_breakdown[LOCAL_ACC_W][MISS] = 0
	L2_cache_stats_breakdown[LOCAL_ACC_W][RESERVATION_FAIL] = 0
	L2_cache_stats_breakdown[LOCAL_ACC_W][SECTOR_MISS] = 0
	L2_cache_stats_breakdown[L1_WRBK_ACC][HIT] = 0
	L2_cache_stats_breakdown[L1_WRBK_ACC][HIT_RESERVED] = 0
	L2_cache_stats_breakdown[L1_WRBK_ACC][MISS] = 0
	L2_cache_stats_breakdown[L1_WRBK_ACC][RESERVATION_FAIL] = 0
	L2_cache_stats_breakdown[L1_WRBK_ACC][SECTOR_MISS] = 0
	L2_cache_stats_breakdown[L2_WRBK_ACC][HIT] = 0
	L2_cache_stats_breakdown[L2_WRBK_ACC][HIT_RESERVED] = 0
	L2_cache_stats_breakdown[L2_WRBK_ACC][MISS] = 0
	L2_cache_stats_breakdown[L2_WRBK_ACC][RESERVATION_FAIL] = 0
	L2_cache_stats_breakdown[L2_WRBK_ACC][SECTOR_MISS] = 0
	L2_cache_stats_breakdown[INST_ACC_R][HIT] = 0
	L2_cache_stats_breakdown[INST_ACC_R][HIT_RESERVED] = 0
	L2_cache_stats_breakdown[INST_ACC_R][MISS] = 0
	L2_cache_stats_breakdown[INST_ACC_R][RESERVATION_FAIL] = 0
	L2_cache_stats_breakdown[INST_ACC_R][SECTOR_MISS] = 0
	L2_cache_stats_breakdown[L1_WR_ALLOC_R][HIT] = 0
	L2_cache_stats_breakdown[L1_WR_ALLOC_R][HIT_RESERVED] = 0
	L2_cache_stats_breakdown[L1_WR_ALLOC_R][MISS] = 0
	L2_cache_stats_breakdown[L1_WR_ALLOC_R][RESERVATION_FAIL] = 0
	L2_cache_stats_breakdown[L1_WR_ALLOC_R][SECTOR_MISS] = 0
	L2_cache_stats_breakdown[L2_WR_ALLOC_R][HIT] = 0
	L2_cache_stats_breakdown[L2_WR_ALLOC_R][HIT_RESERVED] = 0
	L2_cache_stats_breakdown[L2_WR_ALLOC_R][MISS] = 0
	L2_cache_stats_breakdown[L2_WR_ALLOC_R][RESERVATION_FAIL] = 0
	L2_cache_stats_breakdown[L2_WR_ALLOC_R][SECTOR_MISS] = 0
	L2_cache_stats_breakdown[GLOBAL_ACC_R][TOTAL_ACCESS] = 146174
	L2_cache_stats_breakdown[GLOBAL_ACC_W][TOTAL_ACCESS] = 7835
L2_total_cache_reservation_fail_breakdown:
L2_cache_data_port_util = 0.006
L2_cache_fill_port_util = 0.055

icnt_total_pkts_mem_to_simt=154009
icnt_total_pkts_simt_to_mem=154009
LD_mem_lat_dist  0 0 0 0 0 0 0 0 0 0 0 0 0 0 0 0 0 0 0 0 0 0 0 0 0 0 0
ST_mem_lat_dist  0 0 0 0 0 0 0 0 0 0 0 0 0 0 0 0 0 0 0 0 0 0 0 0 0 0 0
----------------------------Interconnect-DETAILS--------------------------------
Req_Network_injected_packets_num = 154009
Req_Network_cycles = 95735
Req_Network_injected_packets_per_cycle =       1.6087 
Req_Network_conflicts_per_cycle =       0.3205
Req_Network_conflicts_per_cycle_util =       0.7510
Req_Bank_Level_Parallism =       3.7693
Req_Network_in_buffer_full_per_cycle =       0.0000
Req_Network_in_buffer_avg_util =       0.0898
Req_Network_out_buffer_full_per_cycle =       0.0000
Req_Network_out_buffer_avg_util =       0.0670

Reply_Network_injected_packets_num = 154009
Reply_Network_cycles = 95735
Reply_Network_injected_packets_per_cycle =        1.6087
Reply_Network_conflicts_per_cycle =        0.7105
Reply_Network_conflicts_per_cycle_util =       1.5915
Reply_Bank_Level_Parallism =       3.6036
Reply_Network_in_buffer_full_per_cycle =       0.0000
Reply_Network_in_buffer_avg_util =       0.0758
Reply_Network_out_buffer_full_per_cycle =       0.0000
Reply_Network_out_buffer_avg_util =       0.0536
----------------------------END-of-Interconnect-DETAILS-------------------------


gpgpu_simulation_time = 0 days, 0 hrs, 2 min, 58 sec (178 sec)
gpgpu_simulation_rate = 353447 (inst/sec)
gpgpu_simulation_rate = 537 (cycle/sec)
gpgpu_silicon_slowdown = 2541899x
GPGPU-Sim: synchronize waiting for inactive GPU simulation
GPGPU-Sim API: Stream Manager State
GPGPU-Sim: detected inactive GPU simulation thread
GPGPU-Sim: *** exit detected ***
