

        *** GPGPU-Sim Simulator Version 4.0.0  [build gpgpu-sim_git-commit-90ec3399763d7c8512cfe7dc193473086c38ca38_modified_0.0] ***


GPGPU-Sim PTX: simulation mode 0 (can change with PTX_SIM_MODE_FUNC environment variable:
               1=functional simulation only, 0=detailed performance simulator)
GPGPU-Sim PTX: overriding embedded ptx with ptx file (PTX_SIM_USE_PTX_FILE is set)
GPGPU-Sim: Configuration options:

-save_embedded_ptx                      0 # saves ptx files embedded in binary as <n>.ptx
-keep                                   0 # keep intermediate files created by GPGPU-Sim when interfacing with external programs
-gpgpu_ptx_save_converted_ptxplus                    0 # Saved converted ptxplus to a file
-gpgpu_occupancy_sm_number                   70 # The SM number to pass to ptxas when getting register usage for computing GPU occupancy. This parameter is required in the config.
-ptx_opcode_latency_int      4,13,4,5,145,32 # Opcode latencies for integers <ADD,MAX,MUL,MAD,DIV,SHFL>Default 1,1,19,25,145,32
-ptx_opcode_latency_fp          4,13,4,5,39 # Opcode latencies for single precision floating points <ADD,MAX,MUL,MAD,DIV>Default 1,1,1,1,30
-ptx_opcode_latency_dp         8,19,8,8,330 # Opcode latencies for double precision floating points <ADD,MAX,MUL,MAD,DIV>Default 8,8,8,8,335
-ptx_opcode_latency_sfu                  100 # Opcode latencies for SFU instructionsDefault 8
-ptx_opcode_latency_tesnor                   64 # Opcode latencies for Tensor instructionsDefault 64
-ptx_opcode_initiation_int          2,2,2,2,8,4 # Opcode initiation intervals for integers <ADD,MAX,MUL,MAD,DIV,SHFL>Default 1,1,4,4,32,4
-ptx_opcode_initiation_fp            2,2,2,2,4 # Opcode initiation intervals for single precision floating points <ADD,MAX,MUL,MAD,DIV>Default 1,1,1,1,5
-ptx_opcode_initiation_dp          4,4,4,4,130 # Opcode initiation intervals for double precision floating points <ADD,MAX,MUL,MAD,DIV>Default 8,8,8,8,130
-ptx_opcode_initiation_sfu                    8 # Opcode initiation intervals for sfu instructionsDefault 8
-ptx_opcode_initiation_tensor                   64 # Opcode initiation intervals for tensor instructionsDefault 64
-cdp_latency         7200,8000,100,12000,1600 # CDP API latency <cudaStreamCreateWithFlags, cudaGetParameterBufferV2_init_perWarp, cudaGetParameterBufferV2_perKernel, cudaLaunchDeviceV2_init_perWarp, cudaLaunchDevicV2_perKernel>Default 7200,8000,100,12000,1600
-network_mode                           2 # Interconnection network mode
-inter_config_file                   mesh # Interconnection network config file
-icnt_in_buffer_limit                  512 # in_buffer_limit
-icnt_out_buffer_limit                  512 # out_buffer_limit
-icnt_subnets                           2 # subnets
-icnt_arbiter_algo                      1 # arbiter_algo
-icnt_verbose                           0 # inct_verbose
-icnt_grant_cycles                      1 # grant_cycles
-gpgpu_ptx_use_cuobjdump                    1 # Use cuobjdump to extract ptx and sass from binaries
-gpgpu_experimental_lib_support                    0 # Try to extract code from cuda libraries [Broken because of unknown cudaGetExportTable]
-checkpoint_option                      0 #  checkpointing flag (0 = no checkpoint)
-checkpoint_kernel                      1 #  checkpointing during execution of which kernel (1- 1st kernel)
-checkpoint_CTA                         0 #  checkpointing after # of CTA (< less than total CTA)
-resume_option                          0 #  resume flag (0 = no resume)
-resume_kernel                          0 #  Resume from which kernel (1= 1st kernel)
-resume_CTA                             0 #  resume from which CTA 
-checkpoint_CTA_t                       0 #  resume from which CTA 
-checkpoint_insn_Y                      0 #  resume from which CTA 
-gpgpu_ptx_convert_to_ptxplus                    0 # Convert SASS (native ISA) to ptxplus and run ptxplus
-gpgpu_ptx_force_max_capability                   70 # Force maximum compute capability
-gpgpu_ptx_inst_debug_to_file                    0 # Dump executed instructions' debug information to file
-gpgpu_ptx_inst_debug_file       inst_debug.txt # Executed instructions' debug output file
-gpgpu_ptx_inst_debug_thread_uid                    1 # Thread UID for executed instructions' debug output
-gpgpu_simd_model                       1 # 1 = post-dominator
-gpgpu_shader_core_pipeline              2048:32 # shader core pipeline config, i.e., {<nthread>:<warpsize>}
-gpgpu_tex_cache:l1  N:4:128:256,L:R:m:N:L,T:512:8,128:2 # per-shader L1 texture cache  (READ-ONLY) config  {<nsets>:<bsize>:<assoc>,<rep>:<wr>:<alloc>:<wr_alloc>,<mshr>:<N>:<merge>,<mq>:<rf>}
-gpgpu_const_cache:l1 N:128:64:8,L:R:f:N:L,S:2:64,4 # per-shader L1 constant memory cache  (READ-ONLY) config  {<nsets>:<bsize>:<assoc>,<rep>:<wr>:<alloc>:<wr_alloc>,<mshr>:<N>:<merge>,<mq>} 
-gpgpu_cache:il1     N:64:128:16,L:R:f:N:L,S:2:48,4 # shader L1 instruction cache config  {<nsets>:<bsize>:<assoc>,<rep>:<wr>:<alloc>:<wr_alloc>,<mshr>:<N>:<merge>,<mq>} 
-gpgpu_cache:dl1     S:1:128:256,L:L:s:N:L,A:256:8,16:0,32 # per-shader L1 data cache config  {<nsets>:<bsize>:<assoc>,<rep>:<wr>:<alloc>:<wr_alloc>,<mshr>:<N>:<merge>,<mq> | none}
-gpgpu_l1_banks                         4 # The number of L1 cache banks
-gpgpu_l1_banks_byte_interleaving                   32 # l1 banks byte interleaving granularity
-gpgpu_l1_banks_hashing_function                    0 # l1 banks hashing function
-gpgpu_l1_latency                      20 # L1 Hit Latency
-gpgpu_smem_latency                    20 # smem Latency
-gpgpu_cache:dl1PrefL1                 none # per-shader L1 data cache config  {<nsets>:<bsize>:<assoc>,<rep>:<wr>:<alloc>:<wr_alloc>,<mshr>:<N>:<merge>,<mq> | none}
-gpgpu_cache:dl1PrefShared                 none # per-shader L1 data cache config  {<nsets>:<bsize>:<assoc>,<rep>:<wr>:<alloc>:<wr_alloc>,<mshr>:<N>:<merge>,<mq> | none}
-gpgpu_gmem_skip_L1D                    0 # global memory access skip L1D cache (implements -Xptxas -dlcm=cg, default=no skip)
-gpgpu_perfect_mem                      0 # enable perfect memory mode (no cache miss)
-n_regfile_gating_group                    4 # group of lanes that should be read/written together)
-gpgpu_clock_gated_reg_file                    0 # enable clock gated reg file for power calculations
-gpgpu_clock_gated_lanes                    0 # enable clock gated lanes for power calculations
-gpgpu_shader_registers                65536 # Number of registers per shader core. Limits number of concurrent CTAs. (default 8192)
-gpgpu_registers_per_block                65536 # Maximum number of registers per CTA. (default 8192)
-gpgpu_ignore_resources_limitation                    0 # gpgpu_ignore_resources_limitation (default 0)
-gpgpu_shader_cta                      32 # Maximum number of concurrent CTAs in shader (default 8)
-gpgpu_num_cta_barriers                   16 # Maximum number of named barriers per CTA (default 16)
-gpgpu_n_clusters                      40 # number of processing clusters
-gpgpu_n_cores_per_cluster                    2 # number of simd cores per cluster
-gpgpu_n_cluster_ejection_buffer_size                   32 # number of packets in ejection buffer
-gpgpu_n_ldst_response_buffer_size                    2 # number of response packets in ld/st unit ejection buffer
-gpgpu_shmem_per_block                65536 # Size of shared memory per thread block or CTA (default 48kB)
-gpgpu_shmem_size                   98304 # Size of shared memory per shader core (default 16kB)
-gpgpu_adaptive_cache_config                    1 # adaptive_cache_config
-gpgpu_shmem_sizeDefault                98304 # Size of shared memory per shader core (default 16kB)
-gpgpu_shmem_size_PrefL1                16384 # Size of shared memory per shader core (default 16kB)
-gpgpu_shmem_size_PrefShared                16384 # Size of shared memory per shader core (default 16kB)
-gpgpu_shmem_num_banks                   32 # Number of banks in the shared memory in each shader core (default 16)
-gpgpu_shmem_limited_broadcast                    0 # Limit shared memory to do one broadcast per cycle (default on)
-gpgpu_shmem_warp_parts                    1 # Number of portions a warp is divided into for shared memory bank conflict check 
-gpgpu_mem_unit_ports                    1 # The number of memory transactions allowed per core cycle
-gpgpu_shmem_warp_parts                    1 # Number of portions a warp is divided into for shared memory bank conflict check 
-gpgpu_warpdistro_shader                   -1 # Specify which shader core to collect the warp size distribution from
-gpgpu_warp_issue_shader                    0 # Specify which shader core to collect the warp issue distribution from
-gpgpu_local_mem_map                    1 # Mapping from local memory space address to simulated GPU physical address space (default = enabled)
-gpgpu_num_reg_banks                    8 # Number of register banks (default = 8)
-gpgpu_reg_bank_use_warp_id                    0 # Use warp ID in mapping registers to banks (default = off)
-gpgpu_sub_core_model                    1 # Sub Core Volta/Pascal model (default = off)
-gpgpu_enable_specialized_operand_collector                    0 # enable_specialized_operand_collector
-gpgpu_operand_collector_num_units_sp                    4 # number of collector units (default = 4)
-gpgpu_operand_collector_num_units_dp                    0 # number of collector units (default = 0)
-gpgpu_operand_collector_num_units_sfu                    4 # number of collector units (default = 4)
-gpgpu_operand_collector_num_units_int                    0 # number of collector units (default = 0)
-gpgpu_operand_collector_num_units_tensor_core                    4 # number of collector units (default = 4)
-gpgpu_operand_collector_num_units_mem                    2 # number of collector units (default = 2)
-gpgpu_operand_collector_num_units_gen                    8 # number of collector units (default = 0)
-gpgpu_operand_collector_num_in_ports_sp                    1 # number of collector unit in ports (default = 1)
-gpgpu_operand_collector_num_in_ports_dp                    0 # number of collector unit in ports (default = 0)
-gpgpu_operand_collector_num_in_ports_sfu                    1 # number of collector unit in ports (default = 1)
-gpgpu_operand_collector_num_in_ports_int                    0 # number of collector unit in ports (default = 0)
-gpgpu_operand_collector_num_in_ports_tensor_core                    1 # number of collector unit in ports (default = 1)
-gpgpu_operand_collector_num_in_ports_mem                    1 # number of collector unit in ports (default = 1)
-gpgpu_operand_collector_num_in_ports_gen                    8 # number of collector unit in ports (default = 0)
-gpgpu_operand_collector_num_out_ports_sp                    1 # number of collector unit in ports (default = 1)
-gpgpu_operand_collector_num_out_ports_dp                    0 # number of collector unit in ports (default = 0)
-gpgpu_operand_collector_num_out_ports_sfu                    1 # number of collector unit in ports (default = 1)
-gpgpu_operand_collector_num_out_ports_int                    0 # number of collector unit in ports (default = 0)
-gpgpu_operand_collector_num_out_ports_tensor_core                    1 # number of collector unit in ports (default = 1)
-gpgpu_operand_collector_num_out_ports_mem                    1 # number of collector unit in ports (default = 1)
-gpgpu_operand_collector_num_out_ports_gen                    8 # number of collector unit in ports (default = 0)
-gpgpu_coalesce_arch                   60 # Coalescing arch (GT200 = 13, Fermi = 20)
-gpgpu_num_sched_per_core                    4 # Number of warp schedulers per core
-gpgpu_max_insn_issue_per_warp                    1 # Max number of instructions that can be issued per warp in one cycle by scheduler (either 1 or 2)
-gpgpu_dual_issue_diff_exec_units                    1 # should dual issue use two different execution unit resources (Default = 1)
-gpgpu_simt_core_sim_order                    1 # Select the simulation order of cores in a cluster (0=Fix, 1=Round-Robin)
-gpgpu_pipeline_widths 4,4,4,4,4,4,4,4,4,4,8,4,4 # Pipeline widths ID_OC_SP,ID_OC_DP,ID_OC_INT,ID_OC_SFU,ID_OC_MEM,OC_EX_SP,OC_EX_DP,OC_EX_INT,OC_EX_SFU,OC_EX_MEM,EX_WB,ID_OC_TENSOR_CORE,OC_EX_TENSOR_CORE
-gpgpu_tensor_core_avail                    1 # Tensor Core Available (default=0)
-gpgpu_num_sp_units                     4 # Number of SP units (default=1)
-gpgpu_num_dp_units                     4 # Number of DP units (default=0)
-gpgpu_num_int_units                    4 # Number of INT units (default=0)
-gpgpu_num_sfu_units                    4 # Number of SF units (default=1)
-gpgpu_num_tensor_core_units                    4 # Number of tensor_core units (default=1)
-gpgpu_num_mem_units                    1 # Number if ldst units (default=1) WARNING: not hooked up to anything
-gpgpu_scheduler                      gto # Scheduler configuration: < lrr | gto | two_level_active > If two_level_active:<num_active_warps>:<inner_prioritization>:<outer_prioritization>For complete list of prioritization values see shader.h enum scheduler_prioritization_typeDefault: gto
-gpgpu_concurrent_kernel_sm                    0 # Support concurrent kernels on a SM (default = disabled)
-gpgpu_perfect_inst_const_cache                    1 # perfect inst and const cache mode, so all inst and const hits in the cache(default = disabled)
-gpgpu_inst_fetch_throughput                    4 # the number of fetched intruction per warp each cycle
-gpgpu_reg_file_port_throughput                    2 # the number ports of the register file
-specialized_unit_1         0,4,4,4,4,BRA # specialized unit config {<enabled>,<num_units>:<latency>:<initiation>,<ID_OC_SPEC>:<OC_EX_SPEC>,<NAME>}
-specialized_unit_2         0,4,4,4,4,BRA # specialized unit config {<enabled>,<num_units>:<latency>:<initiation>,<ID_OC_SPEC>:<OC_EX_SPEC>,<NAME>}
-specialized_unit_3         0,4,4,4,4,BRA # specialized unit config {<enabled>,<num_units>:<latency>:<initiation>,<ID_OC_SPEC>:<OC_EX_SPEC>,<NAME>}
-specialized_unit_4         0,4,4,4,4,BRA # specialized unit config {<enabled>,<num_units>:<latency>:<initiation>,<ID_OC_SPEC>:<OC_EX_SPEC>,<NAME>}
-specialized_unit_5         0,4,4,4,4,BRA # specialized unit config {<enabled>,<num_units>:<latency>:<initiation>,<ID_OC_SPEC>:<OC_EX_SPEC>,<NAME>}
-specialized_unit_6         0,4,4,4,4,BRA # specialized unit config {<enabled>,<num_units>:<latency>:<initiation>,<ID_OC_SPEC>:<OC_EX_SPEC>,<NAME>}
-specialized_unit_7         0,4,4,4,4,BRA # specialized unit config {<enabled>,<num_units>:<latency>:<initiation>,<ID_OC_SPEC>:<OC_EX_SPEC>,<NAME>}
-specialized_unit_8         0,4,4,4,4,BRA # specialized unit config {<enabled>,<num_units>:<latency>:<initiation>,<ID_OC_SPEC>:<OC_EX_SPEC>,<NAME>}
-gpgpu_perf_sim_memcpy                    1 # Fill the L2 cache on memcpy
-gpgpu_simple_dram_model                    0 # simple_dram_model with fixed latency and BW
-gpgpu_dram_scheduler                    1 # 0 = fifo, 1 = FR-FCFS (defaul)
-gpgpu_dram_partition_queues          64:64:64:64 # i2$:$2d:d2$:$2i
-l2_ideal                               0 # Use a ideal L2 cache that always hit
-gpgpu_cache:dl2     S:32:128:24,L:B:m:L:P,A:192:4,32:0,32 # unified banked L2 data cache config  {<nsets>:<bsize>:<assoc>,<rep>:<wr>:<alloc>:<wr_alloc>,<mshr>:<N>:<merge>,<mq>}
-gpgpu_cache:dl2_texture_only                    0 # L2 cache used for texture only
-gpgpu_n_mem                           24 # number of memory modules (e.g. memory controllers) in gpu
-gpgpu_n_sub_partition_per_mchannel                    2 # number of memory subpartition in each memory module
-gpgpu_n_mem_per_ctrlr                    1 # number of memory chips per memory controller
-gpgpu_memlatency_stat                   14 # track and display latency statistics 0x2 enables MC, 0x4 enables queue logs
-gpgpu_frfcfs_dram_sched_queue_size                   64 # 0 = unlimited (default); # entries per chip
-gpgpu_dram_return_queue_size                  192 # 0 = unlimited (default); # entries per chip
-gpgpu_dram_buswidth                   16 # default = 4 bytes (8 bytes per cycle at DDR)
-gpgpu_dram_burst_length                    2 # Burst length of each DRAM request (default = 4 data bus cycle)
-dram_data_command_freq_ratio                    2 # Frequency ratio between DRAM data bus and command bus (default = 2 times, i.e. DDR)
-gpgpu_dram_timing_opt nbk=16:CCD=1:RRD=3:RCD=12:RAS=28:RP=12:RC=40: CL=12:WL=2:CDLR=3:WR=10:nbkgrp=4:CCDL=2:RTPL=3 # DRAM timing parameters = {nbk:tCCD:tRRD:tRCD:tRAS:tRP:tRC:CL:WL:tCDLR:tWR:nbkgrp:tCCDL:tRTPL}
-gpgpu_l2_rop_latency                  160 # ROP queue latency (default 85)
-dram_latency                         100 # DRAM latency (default 30)
-dram_dual_bus_interface                  257 # dual_bus_interface (default = 0) 
-dram_bnk_indexing_policy                    1 # dram_bnk_indexing_policy (0 = normal indexing, 1 = Xoring with the higher bits) (Default = 0)
-dram_bnkgrp_indexing_policy                    1 # dram_bnkgrp_indexing_policy (0 = take higher bits, 1 = take lower bits) (Default = 0)
-dram_seperate_write_queue_enable                    1 # Seperate_Write_Queue_Enable
-dram_write_queue_size           128:108:32 # Write_Queue_Size
-dram_elimnate_rw_turnaround                    0 # elimnate_rw_turnaround i.e set tWTR and tRTW = 0
-icnt_flit_size                        40 # icnt_flit_size
-gpgpu_mem_addr_mapping dramid@8;00000000.00000000.00000000.00000000.0000RRRR.RRRRRRRR.RBBBCCCB.CCCSSSSS # mapping memory address to dram model {dramid@<start bit>;<memory address map>}
-gpgpu_mem_addr_test                    0 # run sweep test to check address mapping for aliased address
-gpgpu_mem_address_mask                    1 # 0 = old addressing mask, 1 = new addressing mask, 2 = new add. mask + flipped bank sel and chip sel bits
-gpgpu_memory_partition_indexing                    2 # 0 = no indexing, 1 = bitwise xoring, 2 = IPoly, 3 = custom indexing
-gpuwattch_xml_file         gpuwattch.xml # GPUWattch XML file
-power_simulation_enabled                    1 # Turn on power simulator (1=On, 0=Off)
-power_per_cycle_dump                    0 # Dump detailed power output each cycle
-power_trace_enabled                    0 # produce a file for the power trace (1=On, 0=Off)
-power_trace_zlevel                     6 # Compression level of the power trace output log (0=no comp, 9=highest)
-steady_power_levels_enabled                    0 # produce a file for the steady power levels (1=On, 0=Off)
-steady_state_definition                  8:4 # allowed deviation:number of samples
-gpgpu_max_cycle                        0 # terminates gpu simulation early (0 = no limit)
-gpgpu_max_insn                         0 # terminates gpu simulation early (0 = no limit)
-gpgpu_max_cta                          0 # terminates gpu simulation early (0 = no limit)
-gpgpu_max_completed_cta                    0 # terminates gpu simulation early (0 = no limit)
-gpgpu_runtime_stat                   500 # display runtime statistics such as dram utilization {<freq>:<flag>}
-liveness_message_freq                    1 # Minimum number of seconds between simulation liveness messages (0 = always print)
-gpgpu_compute_capability_major                    7 # Major compute capability version number
-gpgpu_compute_capability_minor                    0 # Minor compute capability version number
-gpgpu_flush_l1_cache                    1 # Flush L1 cache at the end of each kernel call
-gpgpu_flush_l2_cache                    0 # Flush L2 cache at the end of each kernel call
-gpgpu_deadlock_detect                    1 # Stop the simulation at deadlock (1=on (default), 0=off)
-gpgpu_ptx_instruction_classification                    0 # if enabled will classify ptx instruction types per kernel (Max 255 kernels now)
-gpgpu_ptx_sim_mode                     0 # Select between Performance (default) or Functional simulation (1)
-gpgpu_clock_domains 1200.0:1200.0:1200.0:850.0 # Clock Domain Frequencies in MhZ {<Core Clock>:<ICNT Clock>:<L2 Clock>:<DRAM Clock>}
-gpgpu_max_concurrent_kernel                    8 # maximum kernels that can run concurrently on GPU
-gpgpu_cflog_interval                    0 # Interval between each snapshot in control flow logger
-visualizer_enabled                     0 # Turn on visualizer output (1=On, 0=Off)
-visualizer_outputfile                 NULL # Specifies the output log file for visualizer
-visualizer_zlevel                      6 # Compression level of the visualizer output log (0=no comp, 9=highest)
-gpgpu_stack_size_limit                 1024 # GPU thread stack size
-gpgpu_heap_size_limit              8388608 # GPU malloc heap size 899308a8cbd1edebf0fd10daecf249ec  /home/ishan/COA/Lab4/gpu-rodinia/cuda/pathfinder/a.out
Extracting PTX file and ptxas options    1: a.1.sm_52.ptx -arch=sm_52

-gpgpu_runtime_sync_depth_limit                    2 # GPU device runtime synchronize depth
-gpgpu_runtime_pending_launch_count_limit                 2048 # GPU device runtime pending launch count
-trace_enabled                          0 # Turn on traces
-trace_components                    none # comma seperated list of traces to enable. Complete list found in trace_streams.tup. Default none
-trace_sampling_core                    0 # The core which is printed using CORE_DPRINTF. Default 0
-trace_sampling_memory_partition                   -1 # The memory partition which is printed using MEMPART_DPRINTF. Default -1 (i.e. all)
-enable_ptx_file_line_stats                    1 # Turn on PTX source line statistic profiling. (1 = On)
-ptx_line_stats_filename gpgpu_inst_stats.txt # Output file for PTX source line statistics.
-gpgpu_kernel_launch_latency                    0 # Kernel launch latency in cycles. Default: 0
-gpgpu_cdp_enabled                      0 # Turn on CDP
-gpgpu_TB_launch_latency                    0 # thread block launch latency in cycles. Default: 0
DRAM Timing Options:
nbk                                    16 # number of banks
CCD                                     1 # column to column delay
RRD                                     3 # minimal delay between activation of rows in different banks
RCD                                    12 # row to column delay
RAS                                    28 # time needed to activate row
RP                                     12 # time needed to precharge (deactivate) row
RC                                     40 # row cycle time
CDLR                                    3 # switching from write to read (changes tWTR)
WR                                     10 # last data-in to row precharge
CL                                     12 # CAS latency
WL                                      2 # Write latency
nbkgrp                                  4 # number of bank groups
CCDL                                    2 # column to column delay between accesses to different bank groups
RTPL                                    3 # read to precharge delay between accesses to different bank groups
Total number of memory sub partition = 48
addr_dec_mask[CHIP]  = 0000000000000000 	high:64 low:0
addr_dec_mask[BK]    = 0000000000007100 	high:15 low:8
addr_dec_mask[ROW]   = 000000000fff8000 	high:28 low:15
addr_dec_mask[COL]   = 0000000000000eff 	high:12 low:0
addr_dec_mask[BURST] = 000000000000001f 	high:5 low:0
sub_partition_id_mask = 0000000000000100
GPGPU-Sim uArch: clock freqs: 1200000000.000000:1200000000.000000:1200000000.000000:850000000.000000
GPGPU-Sim uArch: clock periods: 0.00000000083333333333:0.00000000083333333333:0.00000000083333333333:0.00000000117647058824
*** Initializing Memory Statistics ***
GPGPU-Sim uArch: performance model initialization complete.
self exe links to: /home/ishan/COA/Lab4/gpu-rodinia/cuda/pathfinder/a.out
self exe links to: /home/ishan/COA/Lab4/gpu-rodinia/cuda/pathfinder/a.out
11.0
GPGPU-Sim PTX: __cudaRegisterFatBinary, fat_cubin_handle = 1, filename=default
self exe links to: /home/ishan/COA/Lab4/gpu-rodinia/cuda/pathfinder/a.out
Running md5sum using "md5sum /home/ishan/COA/Lab4/gpu-rodinia/cuda/pathfinder/a.out "
self exe links to: /home/ishan/COA/Lab4/gpu-rodinia/cuda/pathfinder/a.out
Extracting specific PTX file named a.1.sm_52.ptx 
GPGPU-Sim PTX: __cudaRegisterFunction _Z14dynproc_kerneliPiS_S_iiii : hostFun 0x0x55b39e789ba4, fat_cubin_handle = 1
GPGPU-Sim PTX: Parsing a.1.sm_52.ptx
GPGPU-Sim PTX: allocating shared region for "_ZZ14dynproc_kerneliPiS_S_iiiiE4prev" from 0x0 to 0x400 (shared memory space)
GPGPU-Sim PTX: allocating shared region for "_ZZ14dynproc_kerneliPiS_S_iiiiE6result" from 0x400 to 0x800 (shared memory space)
GPGPU-Sim PTX: instruction assembly for function '_Z14dynproc_kerneliPiS_S_iiii'...   done.
GPGPU-Sim PTX: finished parsing EMBEDDED .ptx file a.1.sm_52.ptx
GPGPU-Sim PTX: loading globals with explicit initializers... 
GPGPU-Sim PTX: finished loading globals (0 bytes total).
GPGPU-Sim PTX: loading constants with explicit initializers...  done.
GPGPU-Sim PTX: Loading PTXInfo from a.1.sm_52.ptx
GPGPU-Sim PTX: Kernel '_Z14dynproc_kerneliPiS_S_iiii' : regs=18, lmem=0, smem=2048, cmem=368
pyramidHeight: 20
gridSize: [10000]
border:[20]
blockSize: 256
blockGrid:[47]
targetBlock:[216]
GPGPU-Sim PTX: Setting up arguments for 4 bytes starting at 0x7ffc0a208fac..
GPGPU-Sim PTX: Setting up arguments for 8 bytes starting at 0x7ffc0a208fa0..
GPGPU-Sim PTX: Setting up arguments for 8 bytes starting at 0x7ffc0a208f98..
GPGPU-Sim PTX: Setting up arguments for 8 bytes starting at 0x7ffc0a208f90..
GPGPU-Sim PTX: Setting up arguments for 4 bytes starting at 0x7ffc0a208fa8..
GPGPU-Sim PTX: Setting up arguments for 4 bytes starting at 0x7ffc0a208f8c..
GPGPU-Sim PTX: Setting up arguments for 4 bytes starting at 0x7ffc0a209040..
GPGPU-Sim PTX: Setting up arguments for 4 bytes starting at 0x7ffc0a209048..

GPGPU-Sim PTX: cudaLaunch for 0x0x55b39e789ba4 (mode=performance simulation) on stream 0
GPGPU-Sim PTX: finding reconvergence points for '_Z14dynproc_kerneliPiS_S_iiii'...
GPGPU-Sim PTX: Finding dominators for '_Z14dynproc_kerneliPiS_S_iiii'...
GPGPU-Sim PTX: Finding immediate dominators for '_Z14dynproc_kerneliPiS_S_iiii'...
GPGPU-Sim PTX: Finding postdominators for '_Z14dynproc_kerneliPiS_S_iiii'...
GPGPU-Sim PTX: Finding immediate postdominators for '_Z14dynproc_kerneliPiS_S_iiii'...
GPGPU-Sim PTX: pre-decoding instructions for '_Z14dynproc_kerneliPiS_S_iiii'...
GPGPU-Sim PTX: reconvergence points for _Z14dynproc_kerneliPiS_S_iiii...
GPGPU-Sim PTX:  1 (potential) branch divergence @  PC=0x0c0 (a.1.sm_52.ptx:61) @!%p3 bra BB0_2;
GPGPU-Sim PTX:    immediate post dominator      @  PC=0x110 (a.1.sm_52.ptx:75) bar.sync 0;
GPGPU-Sim PTX:  2 (potential) branch divergence @  PC=0x0c8 (a.1.sm_52.ptx:62) bra.uni BB0_1;
GPGPU-Sim PTX:    immediate post dominator      @  PC=0x0d0 (a.1.sm_52.ptx:65) cvta.to.global.u64 %rd4, %rd2;
GPGPU-Sim PTX:  3 (potential) branch divergence @  PC=0x120 (a.1.sm_52.ptx:77) @%p4 bra BB0_10;
GPGPU-Sim PTX:    immediate post dominator      @  PC=0x338 (a.1.sm_52.ptx:157) and.b16 %rs6, %rs8, 255;
GPGPU-Sim PTX:  4 (potential) branch divergence @  PC=0x208 (a.1.sm_52.ptx:109) @!%p12 bra BB0_6;
GPGPU-Sim PTX:    immediate post dominator      @  PC=0x2b8 (a.1.sm_52.ptx:135) bar.sync 0;
GPGPU-Sim PTX:  5 (potential) branch divergence @  PC=0x210 (a.1.sm_52.ptx:110) bra.uni BB0_5;
GPGPU-Sim PTX:    immediate post dominator      @  PC=0x218 (a.1.sm_52.ptx:113) ld.shared.u32 %r70, [%r2];
GPGPU-Sim PTX:  6 (potential) branch divergence @  PC=0x2c8 (a.1.sm_52.ptx:137) @%p15 bra BB0_10;
GPGPU-Sim PTX:    immediate post dominator      @  PC=0x338 (a.1.sm_52.ptx:157) and.b16 %rs6, %rs8, 255;
GPGPU-Sim PTX:  7 (potential) branch divergence @  PC=0x2d8 (a.1.sm_52.ptx:140) @%p16 bra BB0_9;
GPGPU-Sim PTX:    immediate post dominator      @  PC=0x310 (a.1.sm_52.ptx:150) bar.sync 0;
GPGPU-Sim PTX:  8 (potential) branch divergence @  PC=0x330 (a.1.sm_52.ptx:154) @%p17 bra BB0_4;
GPGPU-Sim PTX:    immediate post dominator      @  PC=0x338 (a.1.sm_52.ptx:157) and.b16 %rs6, %rs8, 255;
GPGPU-Sim PTX:  9 (potential) branch divergence @  PC=0x348 (a.1.sm_52.ptx:159) @%p18 bra BB0_12;
GPGPU-Sim PTX:    immediate post dominator      @  PC=0x390 (a.1.sm_52.ptx:171) ret;
GPGPU-Sim PTX: ... end of reconvergence points for _Z14dynproc_kerneliPiS_S_iiii
GPGPU-Sim PTX: ... done pre-decoding instructions for '_Z14dynproc_kerneliPiS_S_iiii'.
GPGPU-Sim PTX: pushing kernel '_Z14dynproc_kerneliPiS_S_iiii' to stream 0, gridDim= (47,1,1) blockDim = (256,1,1) 
GPGPU-Sim uArch: Shader 0 bind to kernel 1 '_Z14dynproc_kerneliPiS_S_iiii'
GPGPU-Sim uArch: CTA/core = 8, limited by: threads
GPGPU-Sim: Reconfigure L1 cache to 120KB
GPGPU-Sim uArch: Shader 2 bind to kernel 1 '_Z14dynproc_kerneliPiS_S_iiii'
GPGPU-Sim uArch: Shader 4 bind to kernel 1 '_Z14dynproc_kerneliPiS_S_iiii'
GPGPU-Sim uArch: Shader 6 bind to kernel 1 '_Z14dynproc_kerneliPiS_S_iiii'
GPGPU-Sim uArch: Shader 8 bind to kernel 1 '_Z14dynproc_kerneliPiS_S_iiii'
GPGPU-Sim uArch: Shader 10 bind to kernel 1 '_Z14dynproc_kerneliPiS_S_iiii'
GPGPU-Sim uArch: Shader 12 bind to kernel 1 '_Z14dynproc_kerneliPiS_S_iiii'
GPGPU-Sim uArch: Shader 14 bind to kernel 1 '_Z14dynproc_kerneliPiS_S_iiii'
GPGPU-Sim uArch: Shader 16 bind to kernel 1 '_Z14dynproc_kerneliPiS_S_iiii'
GPGPU-Sim uArch: Shader 18 bind to kernel 1 '_Z14dynproc_kerneliPiS_S_iiii'
GPGPU-Sim uArch: Shader 20 bind to kernel 1 '_Z14dynproc_kerneliPiS_S_iiii'
GPGPU-Sim uArch: Shader 22 bind to kernel 1 '_Z14dynproc_kerneliPiS_S_iiii'
GPGPU-Sim uArch: Shader 24 bind to kernel 1 '_Z14dynproc_kerneliPiS_S_iiii'
GPGPU-Sim uArch: Shader 26 bind to kernel 1 '_Z14dynproc_kerneliPiS_S_iiii'
GPGPU-Sim uArch: Shader 28 bind to kernel 1 '_Z14dynproc_kerneliPiS_S_iiii'
GPGPU-Sim uArch: Shader 30 bind to kernel 1 '_Z14dynproc_kerneliPiS_S_iiii'
GPGPU-Sim uArch: Shader 32 bind to kernel 1 '_Z14dynproc_kerneliPiS_S_iiii'
GPGPU-Sim uArch: Shader 34 bind to kernel 1 '_Z14dynproc_kerneliPiS_S_iiii'
GPGPU-Sim uArch: Shader 36 bind to kernel 1 '_Z14dynproc_kerneliPiS_S_iiii'
GPGPU-Sim uArch: Shader 38 bind to kernel 1 '_Z14dynproc_kerneliPiS_S_iiii'
GPGPU-Sim uArch: Shader 40 bind to kernel 1 '_Z14dynproc_kerneliPiS_S_iiii'
GPGPU-Sim uArch: Shader 42 bind to kernel 1 '_Z14dynproc_kerneliPiS_S_iiii'
GPGPU-Sim uArch: Shader 44 bind to kernel 1 '_Z14dynproc_kerneliPiS_S_iiii'
GPGPU-Sim uArch: Shader 46 bind to kernel 1 '_Z14dynproc_kerneliPiS_S_iiii'
GPGPU-Sim uArch: Shader 48 bind to kernel 1 '_Z14dynproc_kerneliPiS_S_iiii'
GPGPU-Sim uArch: Shader 50 bind to kernel 1 '_Z14dynproc_kerneliPiS_S_iiii'
GPGPU-Sim uArch: Shader 52 bind to kernel 1 '_Z14dynproc_kerneliPiS_S_iiii'
GPGPU-Sim uArch: Shader 54 bind to kernel 1 '_Z14dynproc_kerneliPiS_S_iiii'
GPGPU-Sim uArch: Shader 56 bind to kernel 1 '_Z14dynproc_kerneliPiS_S_iiii'
GPGPU-Sim uArch: Shader 58 bind to kernel 1 '_Z14dynproc_kerneliPiS_S_iiii'
GPGPU-Sim uArch: Shader 60 bind to kernel 1 '_Z14dynproc_kerneliPiS_S_iiii'
GPGPU-Sim uArch: Shader 62 bind to kernel 1 '_Z14dynproc_kerneliPiS_S_iiii'
GPGPU-Sim uArch: Shader 64 bind to kernel 1 '_Z14dynproc_kerneliPiS_S_iiii'
GPGPU-Sim uArch: Shader 66 bind to kernel 1 '_Z14dynproc_kerneliPiS_S_iiii'
GPGPU-Sim uArch: Shader 68 bind to kernel 1 '_Z14dynproc_kerneliPiS_S_iiii'
GPGPU-Sim uArch: Shader 70 bind to kernel 1 '_Z14dynproc_kerneliPiS_S_iiii'
GPGPU-Sim uArch: Shader 72 bind to kernel 1 '_Z14dynproc_kerneliPiS_S_iiii'
GPGPU-Sim uArch: Shader 74 bind to kernel 1 '_Z14dynproc_kerneliPiS_S_iiii'
GPGPU-Sim uArch: Shader 76 bind to kernel 1 '_Z14dynproc_kerneliPiS_S_iiii'
GPGPU-Sim uArch: Shader 78 bind to kernel 1 '_Z14dynproc_kerneliPiS_S_iiii'
GPGPU-Sim uArch: Shader 1 bind to kernel 1 '_Z14dynproc_kerneliPiS_S_iiii'
GPGPU-Sim uArch: Shader 3 bind to kernel 1 '_Z14dynproc_kerneliPiS_S_iiii'
GPGPU-Sim uArch: Shader 5 bind to kernel 1 '_Z14dynproc_kerneliPiS_S_iiii'
GPGPU-Sim uArch: Shader 7 bind to kernel 1 '_Z14dynproc_kerneliPiS_S_iiii'
GPGPU-Sim uArch: Shader 9 bind to kernel 1 '_Z14dynproc_kerneliPiS_S_iiii'
GPGPU-Sim uArch: Shader 11 bind to kernel 1 '_Z14dynproc_kerneliPiS_S_iiii'
GPGPU-Sim uArch: Shader 13 bind to kernel 1 '_Z14dynproc_kerneliPiS_S_iiii'
Destroy streams for kernel 1: size 0
kernel_name = _Z14dynproc_kerneliPiS_S_iiii 
kernel_launch_uid = 1 
gpu_sim_cycle = 12773
gpu_sim_insn = 12710760
gpu_ipc =     995.1272
gpu_tot_sim_cycle = 12773
gpu_tot_sim_insn = 12710760
gpu_tot_ipc =     995.1272
gpu_tot_issued_cta = 47
gpu_occupancy = 12.4815% 
gpu_tot_occupancy = 12.4815% 
max_total_param_size = 0
gpu_stall_dramfull = 0
gpu_stall_icnt2sh    = 0
partiton_level_parallism =       2.4376
partiton_level_parallism_total  =       2.4376
partiton_level_parallism_util =       3.0950
partiton_level_parallism_util_total  =       3.0950
L2_BW  =      93.6054 GB/Sec
L2_BW_total  =      93.6054 GB/Sec
gpu_total_sim_rate=282461

========= Core cache stats =========
L1I_cache:
	L1I_total_cache_accesses = 0
	L1I_total_cache_misses = 0
	L1I_total_cache_pending_hits = 0
	L1I_total_cache_reservation_fails = 0
L1D_cache:
	L1D_cache_core[0]: Access = 1604, Miss = 1604, Miss_rate = 1.000, Pending_hits = 0, Reservation_fails = 0
	L1D_cache_core[1]: Access = 1640, Miss = 1640, Miss_rate = 1.000, Pending_hits = 0, Reservation_fails = 0
	L1D_cache_core[2]: Access = 1640, Miss = 1640, Miss_rate = 1.000, Pending_hits = 0, Reservation_fails = 0
	L1D_cache_core[3]: Access = 1640, Miss = 1640, Miss_rate = 1.000, Pending_hits = 0, Reservation_fails = 0
	L1D_cache_core[4]: Access = 1640, Miss = 1640, Miss_rate = 1.000, Pending_hits = 0, Reservation_fails = 0
	L1D_cache_core[5]: Access = 1640, Miss = 1640, Miss_rate = 1.000, Pending_hits = 0, Reservation_fails = 0
	L1D_cache_core[6]: Access = 1076, Miss = 1076, Miss_rate = 1.000, Pending_hits = 0, Reservation_fails = 0
	L1D_cache_core[7]: Access = 820, Miss = 820, Miss_rate = 1.000, Pending_hits = 0, Reservation_fails = 0
	L1D_cache_core[8]: Access = 820, Miss = 820, Miss_rate = 1.000, Pending_hits = 0, Reservation_fails = 0
	L1D_cache_core[9]: Access = 820, Miss = 820, Miss_rate = 1.000, Pending_hits = 0, Reservation_fails = 0
	L1D_cache_core[10]: Access = 820, Miss = 820, Miss_rate = 1.000, Pending_hits = 0, Reservation_fails = 0
	L1D_cache_core[11]: Access = 820, Miss = 820, Miss_rate = 1.000, Pending_hits = 0, Reservation_fails = 0
	L1D_cache_core[12]: Access = 820, Miss = 820, Miss_rate = 1.000, Pending_hits = 0, Reservation_fails = 0
	L1D_cache_core[13]: Access = 820, Miss = 820, Miss_rate = 1.000, Pending_hits = 0, Reservation_fails = 0
	L1D_cache_core[14]: Access = 820, Miss = 820, Miss_rate = 1.000, Pending_hits = 0, Reservation_fails = 0
	L1D_cache_core[15]: Access = 820, Miss = 820, Miss_rate = 1.000, Pending_hits = 0, Reservation_fails = 0
	L1D_cache_core[16]: Access = 820, Miss = 820, Miss_rate = 1.000, Pending_hits = 0, Reservation_fails = 0
	L1D_cache_core[17]: Access = 820, Miss = 820, Miss_rate = 1.000, Pending_hits = 0, Reservation_fails = 0
	L1D_cache_core[18]: Access = 820, Miss = 820, Miss_rate = 1.000, Pending_hits = 0, Reservation_fails = 0
	L1D_cache_core[19]: Access = 820, Miss = 820, Miss_rate = 1.000, Pending_hits = 0, Reservation_fails = 0
	L1D_cache_core[20]: Access = 820, Miss = 820, Miss_rate = 1.000, Pending_hits = 0, Reservation_fails = 0
	L1D_cache_core[21]: Access = 820, Miss = 820, Miss_rate = 1.000, Pending_hits = 0, Reservation_fails = 0
	L1D_cache_core[22]: Access = 820, Miss = 820, Miss_rate = 1.000, Pending_hits = 0, Reservation_fails = 0
	L1D_cache_core[23]: Access = 820, Miss = 820, Miss_rate = 1.000, Pending_hits = 0, Reservation_fails = 0
	L1D_cache_core[24]: Access = 820, Miss = 820, Miss_rate = 1.000, Pending_hits = 0, Reservation_fails = 0
	L1D_cache_core[25]: Access = 820, Miss = 820, Miss_rate = 1.000, Pending_hits = 0, Reservation_fails = 0
	L1D_cache_core[26]: Access = 820, Miss = 820, Miss_rate = 1.000, Pending_hits = 0, Reservation_fails = 0
	L1D_cache_core[27]: Access = 820, Miss = 820, Miss_rate = 1.000, Pending_hits = 0, Reservation_fails = 0
	L1D_cache_core[28]: Access = 820, Miss = 820, Miss_rate = 1.000, Pending_hits = 0, Reservation_fails = 0
	L1D_cache_core[29]: Access = 820, Miss = 820, Miss_rate = 1.000, Pending_hits = 0, Reservation_fails = 0
	L1D_cache_core[30]: Access = 820, Miss = 820, Miss_rate = 1.000, Pending_hits = 0, Reservation_fails = 0
	L1D_cache_core[31]: Access = 820, Miss = 820, Miss_rate = 1.000, Pending_hits = 0, Reservation_fails = 0
	L1D_cache_core[32]: Access = 820, Miss = 820, Miss_rate = 1.000, Pending_hits = 0, Reservation_fails = 0
	L1D_cache_core[33]: Access = 820, Miss = 820, Miss_rate = 1.000, Pending_hits = 0, Reservation_fails = 0
	L1D_cache_core[34]: Access = 820, Miss = 820, Miss_rate = 1.000, Pending_hits = 0, Reservation_fails = 0
	L1D_cache_core[35]: Access = 820, Miss = 820, Miss_rate = 1.000, Pending_hits = 0, Reservation_fails = 0
	L1D_cache_core[36]: Access = 820, Miss = 820, Miss_rate = 1.000, Pending_hits = 0, Reservation_fails = 0
	L1D_cache_core[37]: Access = 820, Miss = 820, Miss_rate = 1.000, Pending_hits = 0, Reservation_fails = 0
	L1D_cache_core[38]: Access = 820, Miss = 820, Miss_rate = 1.000, Pending_hits = 0, Reservation_fails = 0
	L1D_cache_core[39]: Access = 820, Miss = 820, Miss_rate = 1.000, Pending_hits = 0, Reservation_fails = 0
	L1D_total_cache_accesses = 37940
	L1D_total_cache_misses = 37940
	L1D_total_cache_miss_rate = 1.0000
	L1D_total_cache_pending_hits = 0
	L1D_total_cache_reservation_fails = 0
	L1D_cache_data_port_util = 0.000
	L1D_cache_fill_port_util = 0.051
L1C_cache:
	L1C_total_cache_accesses = 0
	L1C_total_cache_misses = 0
	L1C_total_cache_pending_hits = 0
	L1C_total_cache_reservation_fails = 0
L1T_cache:
	L1T_total_cache_accesses = 0
	L1T_total_cache_misses = 0
	L1T_total_cache_pending_hits = 0
	L1T_total_cache_reservation_fails = 0

Total_core_cache_stats:
	Total_core_cache_stats_breakdown[GLOBAL_ACC_R][HIT] = 0
	Total_core_cache_stats_breakdown[GLOBAL_ACC_R][HIT_RESERVED] = 0
	Total_core_cache_stats_breakdown[GLOBAL_ACC_R][MISS] = 19555
	Total_core_cache_stats_breakdown[GLOBAL_ACC_R][RESERVATION_FAIL] = 0
	Total_core_cache_stats_breakdown[GLOBAL_ACC_R][SECTOR_MISS] = 16811
	Total_core_cache_stats_breakdown[LOCAL_ACC_R][HIT] = 0
	Total_core_cache_stats_breakdown[LOCAL_ACC_R][HIT_RESERVED] = 0
	Total_core_cache_stats_breakdown[LOCAL_ACC_R][MISS] = 0
	Total_core_cache_stats_breakdown[LOCAL_ACC_R][RESERVATION_FAIL] = 0
	Total_core_cache_stats_breakdown[LOCAL_ACC_R][SECTOR_MISS] = 0
	Total_core_cache_stats_breakdown[CONST_ACC_R][HIT] = 0
	Total_core_cache_stats_breakdown[CONST_ACC_R][HIT_RESERVED] = 0
	Total_core_cache_stats_breakdown[CONST_ACC_R][MISS] = 0
	Total_core_cache_stats_breakdown[CONST_ACC_R][RESERVATION_FAIL] = 0
	Total_core_cache_stats_breakdown[CONST_ACC_R][SECTOR_MISS] = 0
	Total_core_cache_stats_breakdown[TEXTURE_ACC_R][HIT] = 0
	Total_core_cache_stats_breakdown[TEXTURE_ACC_R][HIT_RESERVED] = 0
	Total_core_cache_stats_breakdown[TEXTURE_ACC_R][MISS] = 0
	Total_core_cache_stats_breakdown[TEXTURE_ACC_R][RESERVATION_FAIL] = 0
	Total_core_cache_stats_breakdown[TEXTURE_ACC_R][SECTOR_MISS] = 0
	Total_core_cache_stats_breakdown[GLOBAL_ACC_W][HIT] = 0
	Total_core_cache_stats_breakdown[GLOBAL_ACC_W][HIT_RESERVED] = 0
	Total_core_cache_stats_breakdown[GLOBAL_ACC_W][MISS] = 1574
	Total_core_cache_stats_breakdown[GLOBAL_ACC_W][RESERVATION_FAIL] = 0
	Total_core_cache_stats_breakdown[GLOBAL_ACC_W][SECTOR_MISS] = 0
	Total_core_cache_stats_breakdown[LOCAL_ACC_W][HIT] = 0
	Total_core_cache_stats_breakdown[LOCAL_ACC_W][HIT_RESERVED] = 0
	Total_core_cache_stats_breakdown[LOCAL_ACC_W][MISS] = 0
	Total_core_cache_stats_breakdown[LOCAL_ACC_W][RESERVATION_FAIL] = 0
	Total_core_cache_stats_breakdown[LOCAL_ACC_W][SECTOR_MISS] = 0
	Total_core_cache_stats_breakdown[L1_WRBK_ACC][HIT] = 0
	Total_core_cache_stats_breakdown[L1_WRBK_ACC][HIT_RESERVED] = 0
	Total_core_cache_stats_breakdown[L1_WRBK_ACC][MISS] = 0
	Total_core_cache_stats_breakdown[L1_WRBK_ACC][RESERVATION_FAIL] = 0
	Total_core_cache_stats_breakdown[L1_WRBK_ACC][SECTOR_MISS] = 0
	Total_core_cache_stats_breakdown[L2_WRBK_ACC][HIT] = 0
	Total_core_cache_stats_breakdown[L2_WRBK_ACC][HIT_RESERVED] = 0
	Total_core_cache_stats_breakdown[L2_WRBK_ACC][MISS] = 0
	Total_core_cache_stats_breakdown[L2_WRBK_ACC][RESERVATION_FAIL] = 0
	Total_core_cache_stats_breakdown[L2_WRBK_ACC][SECTOR_MISS] = 0
	Total_core_cache_stats_breakdown[INST_ACC_R][HIT] = 0
	Total_core_cache_stats_breakdown[INST_ACC_R][HIT_RESERVED] = 0
	Total_core_cache_stats_breakdown[INST_ACC_R][MISS] = 0
	Total_core_cache_stats_breakdown[INST_ACC_R][RESERVATION_FAIL] = 0
	Total_core_cache_stats_breakdown[INST_ACC_R][SECTOR_MISS] = 0
	Total_core_cache_stats_breakdown[L1_WR_ALLOC_R][HIT] = 0
	Total_core_cache_stats_breakdown[L1_WR_ALLOC_R][HIT_RESERVED] = 0
	Total_core_cache_stats_breakdown[L1_WR_ALLOC_R][MISS] = 0
	Total_core_cache_stats_breakdown[L1_WR_ALLOC_R][RESERVATION_FAIL] = 0
	Total_core_cache_stats_breakdown[L1_WR_ALLOC_R][SECTOR_MISS] = 0
	Total_core_cache_stats_breakdown[L2_WR_ALLOC_R][HIT] = 0
	Total_core_cache_stats_breakdown[L2_WR_ALLOC_R][HIT_RESERVED] = 0
	Total_core_cache_stats_breakdown[L2_WR_ALLOC_R][MISS] = 0
	Total_core_cache_stats_breakdown[L2_WR_ALLOC_R][RESERVATION_FAIL] = 0
	Total_core_cache_stats_breakdown[L2_WR_ALLOC_R][SECTOR_MISS] = 0
	Total_core_cache_stats_breakdown[GLOBAL_ACC_R][TOTAL_ACCESS] = 36366
	Total_core_cache_stats_breakdown[GLOBAL_ACC_W][TOTAL_ACCESS] = 1574

Total_core_cache_fail_stats:
ctas_completed 47, Shader 0 warp_id issue ditsribution:
warp_id:
0, 1, 2, 3, 4, 5, 6, 7, 
distro:
1166, 1166, 1166, 1166, 1166, 1166, 1166, 1166, 
gpgpu_n_tot_thrd_icount = 13941152
gpgpu_n_tot_w_icount = 435661
gpgpu_n_stall_shd_mem = 29778
gpgpu_n_mem_read_local = 0
gpgpu_n_mem_write_local = 0
gpgpu_n_mem_read_global = 29562
gpgpu_n_mem_write_global = 1574
gpgpu_n_mem_texture = 0
gpgpu_n_mem_const = 0
gpgpu_n_load_insn  = 229320
gpgpu_n_store_insn = 10000
gpgpu_n_shmem_insn = 1306720
gpgpu_n_sstarr_insn = 0
gpgpu_n_tex_insn = 0
gpgpu_n_const_mem_insn = 0
gpgpu_n_param_mem_insn = 84224
gpgpu_n_shmem_bkconflict = 0
gpgpu_n_cache_bkconflict = 0
gpgpu_n_intrawarp_mshr_merge = 0
gpgpu_n_cmem_portconflict = 0
gpgpu_stall_shd_mem[c_mem][resource_stall] = 0
gpgpu_stall_shd_mem[s_mem][bk_conf] = 0
gpgpu_stall_shd_mem[gl_mem][resource_stall] = 29778
gpgpu_stall_shd_mem[gl_mem][coal_stall] = 0
gpgpu_stall_shd_mem[gl_mem][data_port_stall] = 0
gpu_reg_bank_conflict_stalls = 0
Warp Occupancy Distribution:
Stall:6280	W0_Idle:92935	W0_Scoreboard:1768444	W1:0	W2:0	W3:0	W4:0	W5:0	W6:0	W7:0	W8:0	W9:0	W10:0	W11:0	W12:3219	W13:2484	W14:2484	W15:2484	W16:2484	W17:2484	W18:2484	W19:2484	W20:3035	W21:2484	W22:2484	W23:2484	W24:2484	W25:2484	W26:2484	W27:2484	W28:2484	W29:2484	W30:2484	W31:2484	W32:384695
single_issue_nums: WS0:109053	WS1:109053	WS2:109053	WS3:108502	
dual_issue_nums: WS0:0	WS1:0	WS2:0	WS3:0	
traffic_breakdown_coretomem[GLOBAL_ACC_R] = 236496 {8:29562,}
traffic_breakdown_coretomem[GLOBAL_ACC_W] = 62960 {40:1574,}
traffic_breakdown_memtocore[GLOBAL_ACC_R] = 1182480 {40:29562,}
traffic_breakdown_memtocore[GLOBAL_ACC_W] = 12592 {8:1574,}
maxmflatency = 388 
max_icnt2mem_latency = 92 
maxmrqlatency = 43 
max_icnt2sh_latency = 43 
averagemflatency = 229 
avg_icnt2mem_latency = 26 
avg_mrq_latency = 6 
avg_icnt2sh_latency = 2 
mrq_lat_table:1954 	2535 	1954 	957 	932 	116 	0 	0 	0 	0 	0 	0 	0 	0 	0 	0 	0 	0 	0 	0 	0 	0 	0 	0 	0 	0 	0 	0 	0 	0 	0 	0 	
dq_lat_table:0 	0 	0 	0 	0 	0 	0 	0 	0 	0 	0 	0 	0 	0 	0 	0 	0 	0 	0 	0 	0 	0 	0 	0 	0 	0 	0 	0 	0 	0 	0 	0 	
mf_lat_table:0 	0 	0 	0 	0 	0 	0 	22127 	9009 	0 	0 	0 	0 	0 	0 	0 	0 	0 	0 	0 	0 	0 	0 	0 	0 	0 	0 	0 	0 	0 	0 	0 	
icnt2mem_lat_table:0 	0 	0 	0 	27855 	2764 	517 	0 	0 	0 	0 	0 	0 	0 	0 	0 	0 	0 	0 	0 	0 	0 	0 	0 	
icnt2sh_lat_table:0 	27546 	2524 	686 	346 	34 	0 	0 	0 	0 	0 	0 	0 	0 	0 	0 	0 	0 	0 	0 	0 	0 	0 	0 	
mf_lat_pw_table:0 	0 	0 	0 	0 	0 	0 	20 	5 	0 	0 	0 	0 	0 	0 	0 	0 	0 	0 	0 	0 	0 	0 	0 	0 	0 	0 	0 	0 	0 	0 	0 	
maximum concurrent accesses to same row:
dram[0]:        16        32         0         0         0         0         0         0         0         0         0         0         0         0         0         0 
dram[1]:        16        32         0         0         0         0         0         0         0         0         0         0         0         0         0         0 
dram[2]:        16        32         0         0         0         0         0         0         0         0         0         0         0         0         0         0 
dram[3]:        16        32         0         0         0         0         0         0         0         0         0         0         0         0         0         0 
dram[4]:        16        32         0         0         0         0         0         0         0         0         0         0         0         0         0         0 
dram[5]:        16        32         0         0         0         0         0         0         0         0         0         0         0         0         0         0 
dram[6]:        16        32         0         0         0         0         0         0         0         0         0         0         0         0         0         0 
dram[7]:        16        32         0         0         0         0         0         0         0         0         0         0         0         0         0         0 
dram[8]:         0         0         0         0         0         0         0         0         0         0         0         0         0         0         0         0 
dram[9]:         0         0         0         0         0         0         0         0         0         0         0         0         0         0         0         0 
dram[10]:         0         0         0         0         0         0         0         0         0         0         0         0         0         0         0         0 
dram[11]:         0         0         0         0         0         0         0         0         0         0         0         0         0         0         0         0 
dram[12]:         0         0         0         0         0         0         0         0         0         0         0         0         0         0         0         0 
dram[13]:         0         0         0         0         0         0         0         0         0         0         0         0         0         0         0         0 
dram[14]:         0         0         0         0         0         0         0         0         0         0         0         0         0         0         0         0 
dram[15]:         0         0         0         0         0         0         0         0         0         0         0         0         0         0         0         0 
dram[16]:         0         0         0         0         0         0         0         0         0         0         0         0         0         0         0         0 
dram[17]:         0         0         0         0         0         0         0         0         0         0         0         0         0         0         0         0 
dram[18]:         0         0         0         0         0         0         0         0         0         0         0         0         0         0         0         0 
dram[19]:         0         0         0         0         0         0         0         0         0         0         0         0         0         0         0         0 
dram[20]:         0         0         0         0         0         0         0         0         0         0         0         0         0         0         0         0 
dram[21]:         0         0         0         0         0         0         0         0         0         0         0         0         0         0         0         0 
dram[22]:         0         0         0         0         0         0         0         0         0         0         0         0         0         0         0         0 
dram[23]:         0         0         0         0         0         0         0         0         0         0         0         0         0         0         0         0 
maximum service time to same row:
dram[0]:     10714      9104      1500      1559      2261      2550      3785      3729      6108      5777      7272      7277      7428      8024      9205      9342 
dram[1]:     10717     10349      1508      1562      2271      2539      3780      3733      5852      6085      7165      7281      7433      8012      9201      9308 
dram[2]:     10597     10638      1480      1545      2261      2590      3808      3839      6050      5968      7281      7312      7440      6953      9190      9425 
dram[3]:     10596      9108      1487      1541      2258      2592      3790      3835      6061      5962      7268      7313      7448      6962      9200      9421 
dram[4]:     10584     10536      1494      1548      1905      2605      3797      3845      5837      5787      7161      7328      7743      8016      9545      9663 
dram[5]:     10594     10523      1508      1537      2241      2585      3795      3737      5847      5787      7275      7304      7723      8009      9260      9668 
dram[6]:     10585     10332      1513      1561      2600      2535      3798      3742      5851      5797      7128      7294      7727      8014      9554      9427 
dram[7]:     10598     10317      1494      1542      1901      2533      3794      3747      5832      5782      7145      6842      7450      8000      9195      9672 
dram[8]:         0         0         0         0         0         0         0         0         0         0         0         0         0         0         0         0 
dram[9]:         0         0         0         0         0         0         0         0         0         0         0         0         0         0         0         0 
dram[10]:         0         0         0         0         0         0         0         0         0         0         0         0         0         0         0         0 
dram[11]:         0         0         0         0         0         0         0         0         0         0         0         0         0         0         0         0 
dram[12]:         0         0         0         0         0         0         0         0         0         0         0         0         0         0         0         0 
dram[13]:         0         0         0         0         0         0         0         0         0         0         0         0         0         0         0         0 
dram[14]:         0         0         0         0         0         0         0         0         0         0         0         0         0         0         0         0 
dram[15]:         0         0         0         0         0         0         0         0         0         0         0         0         0         0         0         0 
dram[16]:         0         0         0         0         0         0         0         0         0         0         0         0         0         0         0         0 
dram[17]:         0         0         0         0         0         0         0         0         0         0         0         0         0         0         0         0 
dram[18]:         0         0         0         0         0         0         0         0         0         0         0         0         0         0         0         0 
dram[19]:         0         0         0         0         0         0         0         0         0         0         0         0         0         0         0         0 
dram[20]:         0         0         0         0         0         0         0         0         0         0         0         0         0         0         0         0 
dram[21]:         0         0         0         0         0         0         0         0         0         0         0         0         0         0         0         0 
dram[22]:         0         0         0         0         0         0         0         0         0         0         0         0         0         0         0         0 
dram[23]:         0         0         0         0         0         0         0         0         0         0         0         0         0         0         0         0 
average row accesses per activate:
dram[0]: 32.000000 48.000000 64.000000 64.000000 64.000000 64.000000 64.000000 64.000000 64.000000 64.000000 64.000000 64.000000 64.000000 64.000000 64.000000 64.000000 
dram[1]: 32.000000 48.000000 64.000000 64.000000 64.000000 64.000000 64.000000 64.000000 64.000000 64.000000 64.000000 64.000000 64.000000 64.000000 64.000000 64.000000 
dram[2]: 32.000000 48.000000 64.000000 64.000000 64.000000 64.000000 64.000000 64.000000 64.000000 64.000000 64.000000 64.000000 64.000000 64.000000 64.000000 64.000000 
dram[3]: 32.000000 48.000000 64.000000 64.000000 64.000000 64.000000 64.000000 64.000000 64.000000 64.000000 64.000000 64.000000 64.000000 64.000000 64.000000 64.000000 
dram[4]: 32.000000 48.000000 64.000000 64.000000 64.000000 64.000000 64.000000 64.000000 64.000000 64.000000 64.000000 64.000000 64.000000 64.000000 64.000000 64.000000 
dram[5]: 32.000000 48.000000 64.000000 64.000000 64.000000 64.000000 64.000000 64.000000 64.000000 64.000000 64.000000 64.000000 64.000000 64.000000 64.000000 64.000000 
dram[6]: 32.000000 48.000000 64.000000 64.000000 64.000000 64.000000 64.000000 64.000000 64.000000 64.000000 64.000000 64.000000 64.000000 64.000000 64.000000 64.000000 
dram[7]: 32.000000 48.000000 64.000000 64.000000 64.000000 64.000000 64.000000 64.000000 64.000000 64.000000 64.000000 64.000000 64.000000 64.000000 64.000000 64.000000 
dram[8]:      -nan      -nan      -nan      -nan      -nan      -nan      -nan      -nan      -nan      -nan      -nan      -nan      -nan      -nan      -nan      -nan 
dram[9]:      -nan      -nan      -nan      -nan      -nan      -nan      -nan      -nan      -nan      -nan      -nan      -nan      -nan      -nan      -nan      -nan 
dram[10]:      -nan      -nan      -nan      -nan      -nan      -nan      -nan      -nan      -nan      -nan      -nan      -nan      -nan      -nan      -nan      -nan 
dram[11]:      -nan      -nan      -nan      -nan      -nan      -nan      -nan      -nan      -nan      -nan      -nan      -nan      -nan      -nan      -nan      -nan 
dram[12]:      -nan      -nan      -nan      -nan      -nan      -nan      -nan      -nan      -nan      -nan      -nan      -nan      -nan      -nan      -nan      -nan 
dram[13]:      -nan      -nan      -nan      -nan      -nan      -nan      -nan      -nan      -nan      -nan      -nan      -nan      -nan      -nan      -nan      -nan 
dram[14]:      -nan      -nan      -nan      -nan      -nan      -nan      -nan      -nan      -nan      -nan      -nan      -nan      -nan      -nan      -nan      -nan 
dram[15]:      -nan      -nan      -nan      -nan      -nan      -nan      -nan      -nan      -nan      -nan      -nan      -nan      -nan      -nan      -nan      -nan 
dram[16]:      -nan      -nan      -nan      -nan      -nan      -nan      -nan      -nan      -nan      -nan      -nan      -nan      -nan      -nan      -nan      -nan 
dram[17]:      -nan      -nan      -nan      -nan      -nan      -nan      -nan      -nan      -nan      -nan      -nan      -nan      -nan      -nan      -nan      -nan 
dram[18]:      -nan      -nan      -nan      -nan      -nan      -nan      -nan      -nan      -nan      -nan      -nan      -nan      -nan      -nan      -nan      -nan 
dram[19]:      -nan      -nan      -nan      -nan      -nan      -nan      -nan      -nan      -nan      -nan      -nan      -nan      -nan      -nan      -nan      -nan 
dram[20]:      -nan      -nan      -nan      -nan      -nan      -nan      -nan      -nan      -nan      -nan      -nan      -nan      -nan      -nan      -nan      -nan 
dram[21]:      -nan      -nan      -nan      -nan      -nan      -nan      -nan      -nan      -nan      -nan      -nan      -nan      -nan      -nan      -nan      -nan 
dram[22]:      -nan      -nan      -nan      -nan      -nan      -nan      -nan      -nan      -nan      -nan      -nan      -nan      -nan      -nan      -nan      -nan 
dram[23]:      -nan      -nan      -nan      -nan      -nan      -nan      -nan      -nan      -nan      -nan      -nan      -nan      -nan      -nan      -nan      -nan 
average row locality = 8448/144 = 58.666668
number of total memory accesses made:
dram[0]:         0         0         0         0         0         0         0         0         0         0         0         0         0         0         0         0 
dram[1]:         0         0         0         0         0         0         0         0         0         0         0         0         0         0         0         0 
dram[2]:         0         0         0         0         0         0         0         0         0         0         0         0         0         0         0         0 
dram[3]:         0         0         0         0         0         0         0         0         0         0         0         0         0         0         0         0 
dram[4]:         0         0         0         0         0         0         0         0         0         0         0         0         0         0         0         0 
dram[5]:         0         0         0         0         0         0         0         0         0         0         0         0         0         0         0         0 
dram[6]:         0         0         0         0         0         0         0         0         0         0         0         0         0         0         0         0 
dram[7]:         0         0         0         0         0         0         0         0         0         0         0         0         0         0         0         0 
dram[8]:         0         0         0         0         0         0         0         0         0         0         0         0         0         0         0         0 
dram[9]:         0         0         0         0         0         0         0         0         0         0         0         0         0         0         0         0 
dram[10]:         0         0         0         0         0         0         0         0         0         0         0         0         0         0         0         0 
dram[11]:         0         0         0         0         0         0         0         0         0         0         0         0         0         0         0         0 
dram[12]:         0         0         0         0         0         0         0         0         0         0         0         0         0         0         0         0 
dram[13]:         0         0         0         0         0         0         0         0         0         0         0         0         0         0         0         0 
dram[14]:         0         0         0         0         0         0         0         0         0         0         0         0         0         0         0         0 
dram[15]:         0         0         0         0         0         0         0         0         0         0         0         0         0         0         0         0 
dram[16]:         0         0         0         0         0         0         0         0         0         0         0         0         0         0         0         0 
dram[17]:         0         0         0         0         0         0         0         0         0         0         0         0         0         0         0         0 
dram[18]:         0         0         0         0         0         0         0         0         0         0         0         0         0         0         0         0 
dram[19]:         0         0         0         0         0         0         0         0         0         0         0         0         0         0         0         0 
dram[20]:         0         0         0         0         0         0         0         0         0         0         0         0         0         0         0         0 
dram[21]:         0         0         0         0         0         0         0         0         0         0         0         0         0         0         0         0 
dram[22]:         0         0         0         0         0         0         0         0         0         0         0         0         0         0         0         0 
dram[23]:         0         0         0         0         0         0         0         0         0         0         0         0         0         0         0         0 
total accesses: 0
min_bank_accesses = 0!
min_chip_accesses = 0!
number of total read accesses:
dram[0]:        80        80        64        64        64        64        64        64        64        64        64        64        64        64        64        64 
dram[1]:        80        80        64        64        64        64        64        64        64        64        64        64        64        64        64        64 
dram[2]:        80        80        64        64        64        64        64        64        64        64        64        64        64        64        64        64 
dram[3]:        80        80        64        64        64        64        64        64        64        64        64        64        64        64        64        64 
dram[4]:        80        80        64        64        64        64        64        64        64        64        64        64        64        64        64        64 
dram[5]:        80        80        64        64        64        64        64        64        64        64        64        64        64        64        64        64 
dram[6]:        80        80        64        64        64        64        64        64        64        64        64        64        64        64        64        64 
dram[7]:        80        80        64        64        64        64        64        64        64        64        64        64        64        64        64        64 
dram[8]:         0         0         0         0         0         0         0         0         0         0         0         0         0         0         0         0 
dram[9]:         0         0         0         0         0         0         0         0         0         0         0         0         0         0         0         0 
dram[10]:         0         0         0         0         0         0         0         0         0         0         0         0         0         0         0         0 
dram[11]:         0         0         0         0         0         0         0         0         0         0         0         0         0         0         0         0 
dram[12]:         0         0         0         0         0         0         0         0         0         0         0         0         0         0         0         0 
dram[13]:         0         0         0         0         0         0         0         0         0         0         0         0         0         0         0         0 
dram[14]:         0         0         0         0         0         0         0         0         0         0         0         0         0         0         0         0 
dram[15]:         0         0         0         0         0         0         0         0         0         0         0         0         0         0         0         0 
dram[16]:         0         0         0         0         0         0         0         0         0         0         0         0         0         0         0         0 
dram[17]:         0         0         0         0         0         0         0         0         0         0         0         0         0         0         0         0 
dram[18]:         0         0         0         0         0         0         0         0         0         0         0         0         0         0         0         0 
dram[19]:         0         0         0         0         0         0         0         0         0         0         0         0         0         0         0         0 
dram[20]:         0         0         0         0         0         0         0         0         0         0         0         0         0         0         0         0 
dram[21]:         0         0         0         0         0         0         0         0         0         0         0         0         0         0         0         0 
dram[22]:         0         0         0         0         0         0         0         0         0         0         0         0         0         0         0         0 
dram[23]:         0         0         0         0         0         0         0         0         0         0         0         0         0         0         0         0 
total dram reads = 8448
min_bank_accesses = 0!
min_chip_accesses = 0!
number of total write accesses:
dram[0]:         0         0         0         0         0         0         0         0         0         0         0         0         0         0         0         0 
dram[1]:         0         0         0         0         0         0         0         0         0         0         0         0         0         0         0         0 
dram[2]:         0         0         0         0         0         0         0         0         0         0         0         0         0         0         0         0 
dram[3]:         0         0         0         0         0         0         0         0         0         0         0         0         0         0         0         0 
dram[4]:         0         0         0         0         0         0         0         0         0         0         0         0         0         0         0         0 
dram[5]:         0         0         0         0         0         0         0         0         0         0         0         0         0         0         0         0 
dram[6]:         0         0         0         0         0         0         0         0         0         0         0         0         0         0         0         0 
dram[7]:         0         0         0         0         0         0         0         0         0         0         0         0         0         0         0         0 
dram[8]:         0         0         0         0         0         0         0         0         0         0         0         0         0         0         0         0 
dram[9]:         0         0         0         0         0         0         0         0         0         0         0         0         0         0         0         0 
dram[10]:         0         0         0         0         0         0         0         0         0         0         0         0         0         0         0         0 
dram[11]:         0         0         0         0         0         0         0         0         0         0         0         0         0         0         0         0 
dram[12]:         0         0         0         0         0         0         0         0         0         0         0         0         0         0         0         0 
dram[13]:         0         0         0         0         0         0         0         0         0         0         0         0         0         0         0         0 
dram[14]:         0         0         0         0         0         0         0         0         0         0         0         0         0         0         0         0 
dram[15]:         0         0         0         0         0         0         0         0         0         0         0         0         0         0         0         0 
dram[16]:         0         0         0         0         0         0         0         0         0         0         0         0         0         0         0         0 
dram[17]:         0         0         0         0         0         0         0         0         0         0         0         0         0         0         0         0 
dram[18]:         0         0         0         0         0         0         0         0         0         0         0         0         0         0         0         0 
dram[19]:         0         0         0         0         0         0         0         0         0         0         0         0         0         0         0         0 
dram[20]:         0         0         0         0         0         0         0         0         0         0         0         0         0         0         0         0 
dram[21]:         0         0         0         0         0         0         0         0         0         0         0         0         0         0         0         0 
dram[22]:         0         0         0         0         0         0         0         0         0         0         0         0         0         0         0         0 
dram[23]:         0         0         0         0         0         0         0         0         0         0         0         0         0         0         0         0 
total dram writes = 0
min_bank_accesses = 0!
min_chip_accesses = 0!
average mf latency per bank:
dram[0]:        639       640       557       509       477       439       497       435       457       471       424       446       431       439       432       441
dram[1]:        696       630       498       580       428       476       427       465       469       460       453       427       436       429       444       424
dram[2]:        662       624       499       538       470       475       481       499       495       427       447       438       433       446       434       442
dram[3]:        694       655       529       474       512       445       461       463       429       471       441       447       431       441       436       423
dram[4]:        671       608       545       512       501       456       450       470       426       456       431       443       441       435       436       428
dram[5]:        652       638       506       525       443       483       479       468       465       437       443       449       434       432       435       452
dram[6]:        665       637       500       553       459       511       440       480       482       441       448       434       443       432       438       423
dram[7]:        670       650       547       490       486       449       495       451       447       482       433       441       424       432       433       447
dram[8]:     none      none      none      none      none      none      none      none      none      none      none      none      none      none      none      none  
dram[9]:     none      none      none      none      none      none      none      none      none      none      none      none      none      none      none      none  
dram[10]:     none      none      none      none      none      none      none      none      none      none      none      none      none      none      none      none  
dram[11]:     none      none      none      none      none      none      none      none      none      none      none      none      none      none      none      none  
dram[12]:     none      none      none      none      none      none      none      none      none      none      none      none      none      none      none      none  
dram[13]:     none      none      none      none      none      none      none      none      none      none      none      none      none      none      none      none  
dram[14]:     none      none      none      none      none      none      none      none      none      none      none      none      none      none      none      none  
dram[15]:     none      none      none      none      none      none      none      none      none      none      none      none      none      none      none      none  
dram[16]:     none      none      none      none      none      none      none      none      none      none      none      none      none      none      none      none  
dram[17]:     none      none      none      none      none      none      none      none      none      none      none      none      none      none      none      none  
dram[18]:     none      none      none      none      none      none      none      none      none      none      none      none      none      none      none      none  
dram[19]:     none      none      none      none      none      none      none      none      none      none      none      none      none      none      none      none  
dram[20]:     none      none      none      none      none      none      none      none      none      none      none      none      none      none      none      none  
dram[21]:     none      none      none      none      none      none      none      none      none      none      none      none      none      none      none      none  
dram[22]:     none      none      none      none      none      none      none      none      none      none      none      none      none      none      none      none  
dram[23]:     none      none      none      none      none      none      none      none      none      none      none      none      none      none      none      none  
maximum mf latency per bank:
dram[0]:        354       381       357       363       350       337       346       342       329       346       332       339       335       331       334       331
dram[1]:        363       382       345       369       360       336       336       338       336       340       338       332       344       340       331       334
dram[2]:        358       384       339       366       365       347       346       355       335       347       336       340       332       338       336       335
dram[3]:        365       372       339       369       355       347       329       337       327       338       336       333       333       336       327       335
dram[4]:        363       372       361       349       343       336       339       338       335       333       333       349       336       336       335       339
dram[5]:        366       378       350       360       373       342       339       335       337       344       331       333       333       337       341       333
dram[6]:        355       376       359       365       348       334       344       334       334       335       347       339       341       329       337       329
dram[7]:        369       388       385       368       340       328       337       334       339       337       334       329       340       334       337       334
dram[8]:        252       248       220       208       191       196       197       202       212       190       195       190       193       191       198       198
dram[9]:        239       236       207       203       193       208       201       203       199       191       196       190       194       192       191       201
dram[10]:        245       232       222       210       188       194       192       195       200       196       187       190       194       189       193       192
dram[11]:        247       230       220       213       188       191       195       200       213       189       188       187       200       189       193       192
dram[12]:        246       229       251       216       195       211       216       211       203       222       194       192       189       193       188       195
dram[13]:        245       223       225       219       194       212       213       215       219       213       193       193       189       195       189       194
dram[14]:        238       222       210       218       191       201       212       198       190       213       193       194       190       199       194       198
dram[15]:        234       227       234       201       192       217       218       212       207       208       194       198       193       195       198       196
dram[16]:        233       248       202       253       201       216       190       197       191       217       194       193       195       194       190       191
dram[17]:        248       244       205       205       201       212       190       197       195       211       194       190       195       190       192       191
dram[18]:        244       246       206       252       223       225       189       197       191       225       193       192       193       197       191       188
dram[19]:        232       249       202       255       208       216       189       196       192       195       195       191       197       194       192       189
dram[20]:        232       252       208       199       194       212       189       190       206       192       199       191       195       197       188       190
dram[21]:        238       242       205       207       198       209       188       192       208       193       192       192       196       196       189       195
dram[22]:        235       241       204       223       205       193       189       197       207       201       190       189       197       190       190       195
dram[23]:        234       248       203       229       202       208       187       199       211       212       189       190       190       192       189       192
Memory Partition 0: 
Cache L2_bank_000:
MSHR contents

Cache L2_bank_001:
MSHR contents

In Dram Latency Queue (total = 0): 
DRAM[0]: 16 bks, busW=16 BL=2 CL=12, tRRD=3 tCCD=1, tRCD=12 tRAS=28 tRP=12 tRC=40
n_cmd=9047 n_nop=7973 n_act=18 n_pre=2 n_ref_event=94229960108704 n_req=1056 n_rd=1056 n_rd_L2_A=0 n_write=0 n_wr_bk=0 bw_util=0.1167
n_activity=3219 dram_eff=0.3281
bk0: 64a 8959i bk1: 96a 8933i bk2: 64a 8988i bk3: 64a 8978i bk4: 64a 8988i bk5: 64a 8987i bk6: 64a 8984i bk7: 64a 8984i bk8: 64a 8995i bk9: 64a 8979i bk10: 64a 8997i bk11: 64a 8986i bk12: 64a 8991i bk13: 64a 8988i bk14: 64a 8984i bk15: 64a 8982i 

------------------------------------------------------------------------

Row_Buffer_Locality = 0.982955
Row_Buffer_Locality_read = 0.982955
Row_Buffer_Locality_write = -nan
Bank_Level_Parallism = 1.122068
Bank_Level_Parallism_Col = 0.670556
Bank_Level_Parallism_Ready = 1.035985
write_to_read_ratio_blp_rw_average = 0.000000
GrpLevelPara = 0.000000 

BW Util details:
bwutil = 0.116724 
total_CMD = 9047 
util_bw = 1056 
Wasted_Col = 802 
Wasted_Row = 18 
Idle = 7171 

BW Util Bottlenecks: 
RCDc_limit = 192 
RCDWRc_limit = 0 
WTRc_limit = 0 
RTWc_limit = 0 
CCDLc_limit = 636 
rwq = 0 
CCDLc_limit_alone = 636 
WTRc_limit_alone = 0 
RTWc_limit_alone = 0 

Commands details: 
total_CMD = 9047 
n_nop = 7973 
Read = 1056 
Write = 0 
L2_Alloc = 0 
L2_WB = 0 
n_act = 18 
n_pre = 2 
n_ref = 94229960108704 
n_req = 1056 
total_req = 1056 

Dual Bus Interface Util: 
issued_total_row = 20 
issued_total_col = 1056 
Row_Bus_Util =  0.002211 
CoL_Bus_Util = 0.116724 
Either_Row_CoL_Bus_Util = 0.118713 
Issued_on_Two_Bus_Simul_Util = 0.000221 
issued_two_Eff = 0.001862 
queue_avg = 0.363325 


dram_util_bins: 0 0 0 0 0 0 0 0 0 0
dram_eff_bins: 0 0 0 0 0 0 0 0 0 0
mrqq: max=13 avg=0.363325
Memory Partition 1: 
Cache L2_bank_002:
MSHR contents

Cache L2_bank_003:
MSHR contents

In Dram Latency Queue (total = 0): 
DRAM[1]: 16 bks, busW=16 BL=2 CL=12, tRRD=3 tCCD=1, tRCD=12 tRAS=28 tRP=12 tRC=40
n_cmd=9047 n_nop=7975 n_act=18 n_pre=2 n_ref_event=0 n_req=1056 n_rd=1056 n_rd_L2_A=0 n_write=0 n_wr_bk=0 bw_util=0.1167
n_activity=3288 dram_eff=0.3212
bk0: 64a 8963i bk1: 96a 8938i bk2: 64a 8985i bk3: 64a 8979i bk4: 64a 8987i bk5: 64a 8979i bk6: 64a 8988i bk7: 64a 8986i bk8: 64a 8988i bk9: 64a 8981i bk10: 64a 8985i bk11: 64a 8988i bk12: 64a 8990i bk13: 64a 8982i bk14: 64a 8992i bk15: 64a 8989i 

------------------------------------------------------------------------

Row_Buffer_Locality = 0.982955
[...]
Bank_Level_Parallism_Col = 1.000000
Bank_Level_Parallism_Ready = 1.000000
write_to_read_ratio_blp_rw_average = 0.000000
GrpLevelPara = 1.000000 

BW Util details:
bwutil = 0.000112 
total_CMD = 44673 
util_bw = 5 
Wasted_Col = 25 
Wasted_Row = 0 
Idle = 44643 

BW Util Bottlenecks: 
RCDc_limit = 24 
RCDWRc_limit = 0 
WTRc_limit = 0 
RTWc_limit = 0 
CCDLc_limit = 1 
rwq = 0 
CCDLc_limit_alone = 1 
WTRc_limit_alone = 0 
RTWc_limit_alone = 0 

Commands details: 
total_CMD = 44673 
n_nop = 44666 
Read = 5 
Write = 0 
L2_Alloc = 0 
L2_WB = 0 
n_act = 2 
n_pre = 0 
n_ref = 0 
n_req = 5 
total_req = 5 

Dual Bus Interface Util: 
issued_total_row = 2 
issued_total_col = 5 
Row_Bus_Util =  0.000045 
CoL_Bus_Util = 0.000112 
Either_Row_CoL_Bus_Util = 0.000157 
Issued_on_Two_Bus_Simul_Util = 0.000000 
issued_two_Eff = 0.000000 
queue_avg = 0.000201 


dram_util_bins: 0 0 0 0 0 0 0 0 0 0
dram_eff_bins: 0 0 0 0 0 0 0 0 0 0
mrqq: max=1 avg=0.000201464
Memory Partition 19: 
Cache L2_bank_038:
MSHR contents

Cache L2_bank_039:
MSHR contents

In Dram Latency Queue (total = 0): 
DRAM[19]: 16 bks, busW=16 BL=2 CL=12, tRRD=3 tCCD=1, tRCD=12 tRAS=28 tRP=12 tRC=40
n_cmd=44673 n_nop=44667 n_act=2 n_pre=0 n_ref_event=0 n_req=4 n_rd=4 n_rd_L2_A=0 n_write=0 n_wr_bk=0 bw_util=8.954e-05
n_activity=53 dram_eff=0.07547
bk0: 2a 44661i bk1: 2a 44661i bk2: 0a 44673i bk3: 0a 44673i bk4: 0a 44673i bk5: 0a 44673i bk6: 0a 44673i bk7: 0a 44673i bk8: 0a 44673i bk9: 0a 44673i bk10: 0a 44673i bk11: 0a 44673i bk12: 0a 44673i bk13: 0a 44673i bk14: 0a 44673i bk15: 0a 44673i 

------------------------------------------------------------------------

Row_Buffer_Locality = 0.500000
Row_Buffer_Locality_read = 0.500000
Row_Buffer_Locality_write = -nan
Bank_Level_Parallism = 1.037037
Bank_Level_Parallism_Col = 1.040000
Bank_Level_Parallism_Ready = 1.000000
write_to_read_ratio_blp_rw_average = 0.000000
GrpLevelPara = 1.040000 

BW Util details:
bwutil = 0.000090 
total_CMD = 44673 
util_bw = 4 
Wasted_Col = 23 
Wasted_Row = 0 
Idle = 44646 

BW Util Bottlenecks: 
RCDc_limit = 23 
RCDWRc_limit = 0 
WTRc_limit = 0 
RTWc_limit = 0 
CCDLc_limit = 0 
rwq = 0 
CCDLc_limit_alone = 0 
WTRc_limit_alone = 0 
RTWc_limit_alone = 0 

Commands details: 
total_CMD = 44673 
n_nop = 44667 
Read = 4 
Write = 0 
L2_Alloc = 0 
L2_WB = 0 
n_act = 2 
n_pre = 0 
n_ref = 0 
n_req = 4 
total_req = 4 

Dual Bus Interface Util: 
issued_total_row = 2 
issued_total_col = 4 
Row_Bus_Util =  0.000045 
CoL_Bus_Util = 0.000090 
Either_Row_CoL_Bus_Util = 0.000134 
Issued_on_Two_Bus_Simul_Util = 0.000000 
issued_two_Eff = 0.000000 
queue_avg = 0.000067 


dram_util_bins: 0 0 0 0 0 0 0 0 0 0
dram_eff_bins: 0 0 0 0 0 0 0 0 0 0
mrqq: max=1 avg=6.71547e-05
Memory Partition 20: 
Cache L2_bank_040:
MSHR contents

Cache L2_bank_041:
MSHR contents

In Dram Latency Queue (total = 0): 
DRAM[20]: 16 bks, busW=16 BL=2 CL=12, tRRD=3 tCCD=1, tRCD=12 tRAS=28 tRP=12 tRC=40
n_cmd=44673 n_nop=44667 n_act=2 n_pre=0 n_ref_event=0 n_req=4 n_rd=4 n_rd_L2_A=0 n_write=0 n_wr_bk=0 bw_util=8.954e-05
n_activity=79 dram_eff=0.05063
bk0: 2a 44661i bk1: 2a 44660i bk2: 0a 44673i bk3: 0a 44673i bk4: 0a 44673i bk5: 0a 44673i bk6: 0a 44673i bk7: 0a 44673i bk8: 0a 44673i bk9: 0a 44673i bk10: 0a 44673i bk11: 0a 44673i bk12: 0a 44673i bk13: 0a 44673i bk14: 0a 44673i bk15: 0a 44673i 

------------------------------------------------------------------------

Row_Buffer_Locality = 0.500000
Row_Buffer_Locality_read = 0.500000
Row_Buffer_Locality_write = -nan
Bank_Level_Parallism = 1.000000
Bank_Level_Parallism_Col = 1.000000
Bank_Level_Parallism_Ready = 1.000000
write_to_read_ratio_blp_rw_average = 0.000000
GrpLevelPara = 1.000000 

BW Util details:
bwutil = 0.000090 
total_CMD = 44673 
util_bw = 4 
Wasted_Col = 25 
Wasted_Row = 0 
Idle = 44644 

BW Util Bottlenecks: 
RCDc_limit = 24 
RCDWRc_limit = 0 
WTRc_limit = 0 
RTWc_limit = 0 
CCDLc_limit = 1 
rwq = 0 
CCDLc_limit_alone = 1 
WTRc_limit_alone = 0 
RTWc_limit_alone = 0 

Commands details: 
total_CMD = 44673 
n_nop = 44667 
Read = 4 
Write = 0 
L2_Alloc = 0 
L2_WB = 0 
n_act = 2 
n_pre = 0 
n_ref = 0 
n_req = 4 
total_req = 4 

Dual Bus Interface Util: 
issued_total_row = 2 
issued_total_col = 4 
Row_Bus_Util =  0.000045 
CoL_Bus_Util = 0.000090 
Either_Row_CoL_Bus_Util = 0.000134 
Issued_on_Two_Bus_Simul_Util = 0.000000 
issued_two_Eff = 0.000000 
queue_avg = 0.000224 


dram_util_bins: 0 0 0 0 0 0 0 0 0 0
dram_eff_bins: 0 0 0 0 0 0 0 0 0 0
mrqq: max=1 avg=0.000223849
Memory Partition 21: 
Cache L2_bank_042:
MSHR contents

Cache L2_bank_043:
MSHR contents

In Dram Latency Queue (total = 0): 
DRAM[21]: 16 bks, busW=16 BL=2 CL=12, tRRD=3 tCCD=1, tRCD=12 tRAS=28 tRP=12 tRC=40
n_cmd=44673 n_nop=44667 n_act=2 n_pre=0 n_ref_event=0 n_req=4 n_rd=4 n_rd_L2_A=0 n_write=0 n_wr_bk=0 bw_util=8.954e-05
n_activity=50 dram_eff=0.08
bk0: 2a 44661i bk1: 2a 44660i bk2: 0a 44673i bk3: 0a 44673i bk4: 0a 44673i bk5: 0a 44673i bk6: 0a 44673i bk7: 0a 44673i bk8: 0a 44673i bk9: 0a 44673i bk10: 0a 44673i bk11: 0a 44673i bk12: 0a 44673i bk13: 0a 44673i bk14: 0a 44673i bk15: 0a 44673i 

------------------------------------------------------------------------

Row_Buffer_Locality = 0.500000
Row_Buffer_Locality_read = 0.500000
Row_Buffer_Locality_write = -nan
Bank_Level_Parallism = 1.160000
Bank_Level_Parallism_Col = 1.125000
Bank_Level_Parallism_Ready = 1.000000
write_to_read_ratio_blp_rw_average = 0.000000
GrpLevelPara = 1.125000 

BW Util details:
bwutil = 0.000090 
total_CMD = 44673 
util_bw = 4 
Wasted_Col = 21 
Wasted_Row = 0 
Idle = 44648 

BW Util Bottlenecks: 
RCDc_limit = 22 
RCDWRc_limit = 0 
WTRc_limit = 0 
RTWc_limit = 0 
CCDLc_limit = 1 
rwq = 0 
CCDLc_limit_alone = 1 
WTRc_limit_alone = 0 
RTWc_limit_alone = 0 

Commands details: 
total_CMD = 44673 
n_nop = 44667 
Read = 4 
Write = 0 
L2_Alloc = 0 
L2_WB = 0 
n_act = 2 
n_pre = 0 
n_ref = 0 
n_req = 4 
total_req = 4 

Dual Bus Interface Util: 
issued_total_row = 2 
issued_total_col = 4 
Row_Bus_Util =  0.000045 
CoL_Bus_Util = 0.000090 
Either_Row_CoL_Bus_Util = 0.000134 
Issued_on_Two_Bus_Simul_Util = 0.000000 
issued_two_Eff = 0.000000 
queue_avg = 0.000224 


dram_util_bins: 0 0 0 0 0 0 0 0 0 0
dram_eff_bins: 0 0 0 0 0 0 0 0 0 0
mrqq: max=1 avg=0.000223849
Memory Partition 22: 
Cache L2_bank_044:
MSHR contents

Cache L2_bank_045:
MSHR contents

In Dram Latency Queue (total = 0): 
DRAM[22]: 16 bks, busW=16 BL=2 CL=12, tRRD=3 tCCD=1, tRCD=12 tRAS=28 tRP=12 tRC=40
n_cmd=44673 n_nop=44666 n_act=2 n_pre=0 n_ref_event=0 n_req=5 n_rd=5 n_rd_L2_A=0 n_write=0 n_wr_bk=0 bw_util=0.0001119
n_activity=50 dram_eff=0.1
bk0: 3a 44661i bk1: 2a 44658i bk2: 0a 44673i bk3: 0a 44673i bk4: 0a 44673i bk5: 0a 44673i bk6: 0a 44673i bk7: 0a 44673i bk8: 0a 44673i bk9: 0a 44673i bk10: 0a 44673i bk11: 0a 44673i bk12: 0a 44673i bk13: 0a 44673i bk14: 0a 44673i bk15: 0a 44673i 

------------------------------------------------------------------------

Row_Buffer_Locality = 0.600000
Row_Buffer_Locality_read = 0.600000
Row_Buffer_Locality_write = -nan
Bank_Level_Parallism = 1.600000
Bank_Level_Parallism_Col = 1.473684
Bank_Level_Parallism_Ready = 1.000000
write_to_read_ratio_blp_rw_average = 0.000000
GrpLevelPara = 1.473684 

BW Util details:
bwutil = 0.000112 
total_CMD = 44673 
util_bw = 5 
Wasted_Col = 15 
Wasted_Row = 0 
Idle = 44653 

BW Util Bottlenecks: 
RCDc_limit = 23 
RCDWRc_limit = 0 
WTRc_limit = 0 
RTWc_limit = 0 
CCDLc_limit = 1 
rwq = 0 
CCDLc_limit_alone = 1 
WTRc_limit_alone = 0 
RTWc_limit_alone = 0 

Commands details: 
total_CMD = 44673 
n_nop = 44666 
Read = 5 
Write = 0 
L2_Alloc = 0 
L2_WB = 0 
n_act = 2 
n_pre = 0 
n_ref = 0 
n_req = 5 
total_req = 5 

Dual Bus Interface Util: 
issued_total_row = 2 
issued_total_col = 5 
Row_Bus_Util =  0.000045 
CoL_Bus_Util = 0.000112 
Either_Row_CoL_Bus_Util = 0.000157 
Issued_on_Two_Bus_Simul_Util = 0.000000 
issued_two_Eff = 0.000000 
queue_avg = 0.000269 


dram_util_bins: 0 0 0 0 0 0 0 0 0 0
dram_eff_bins: 0 0 0 0 0 0 0 0 0 0
mrqq: max=1 avg=0.000268619
Memory Partition 23: 
Cache L2_bank_046:
MSHR contents

Cache L2_bank_047:
MSHR contents

In Dram Latency Queue (total = 0): 
DRAM[23]: 16 bks, busW=16 BL=2 CL=12, tRRD=3 tCCD=1, tRCD=12 tRAS=28 tRP=12 tRC=40
n_cmd=44673 n_nop=44667 n_act=2 n_pre=0 n_ref_event=0 n_req=4 n_rd=4 n_rd_L2_A=0 n_write=0 n_wr_bk=0 bw_util=8.954e-05
n_activity=59 dram_eff=0.0678
bk0: 2a 44661i bk1: 2a 44660i bk2: 0a 44673i bk3: 0a 44673i bk4: 0a 44673i bk5: 0a 44673i bk6: 0a 44673i bk7: 0a 44673i bk8: 0a 44673i bk9: 0a 44673i bk10: 0a 44673i bk11: 0a 44673i bk12: 0a 44673i bk13: 0a 44673i bk14: 0a 44673i bk15: 0a 44673i 

------------------------------------------------------------------------

Row_Buffer_Locality = 0.500000
Row_Buffer_Locality_read = 0.500000
Row_Buffer_Locality_write = -nan
Bank_Level_Parallism = 1.450000
Bank_Level_Parallism_Col = 1.421053
Bank_Level_Parallism_Ready = 1.000000
write_to_read_ratio_blp_rw_average = 0.000000
GrpLevelPara = 1.421053 

BW Util details:
bwutil = 0.000090 
total_CMD = 44673 
util_bw = 4 
Wasted_Col = 16 
Wasted_Row = 0 
Idle = 44653 

BW Util Bottlenecks: 
RCDc_limit = 22 
RCDWRc_limit = 0 
WTRc_limit = 0 
RTWc_limit = 0 
CCDLc_limit = 1 
rwq = 0 
CCDLc_limit_alone = 1 
WTRc_limit_alone = 0 
RTWc_limit_alone = 0 

Commands details: 
total_CMD = 44673 
n_nop = 44667 
Read = 4 
Write = 0 
L2_Alloc = 0 
L2_WB = 0 
n_act = 2 
n_pre = 0 
n_ref = 0 
n_req = 4 
total_req = 4 

Dual Bus Interface Util: 
issued_total_row = 2 
issued_total_col = 4 
Row_Bus_Util =  0.000045 
CoL_Bus_Util = 0.000090 
Either_Row_CoL_Bus_Util = 0.000134 
Issued_on_Two_Bus_Simul_Util = 0.000000 
issued_two_Eff = 0.000000 
queue_avg = 0.000112 


dram_util_bins: 0 0 0 0 0 0 0 0 0 0
dram_eff_bins: 0 0 0 0 0 0 0 0 0 0
mrqq: max=1 avg=0.000111924

========= L2 cache stats =========
L2_cache_bank[0]: Access = 5164, Miss = 2768, Miss_rate = 0.536, Pending_hits = 147, Reservation_fails = 0
L2_cache_bank[1]: Access = 4348, Miss = 2560, Miss_rate = 0.589, Pending_hits = 261, Reservation_fails = 0
L2_cache_bank[2]: Access = 5195, Miss = 2764, Miss_rate = 0.532, Pending_hits = 191, Reservation_fails = 0
L2_cache_bank[3]: Access = 4361, Miss = 2560, Miss_rate = 0.587, Pending_hits = 259, Reservation_fails = 0
L2_cache_bank[4]: Access = 5192, Miss = 2766, Miss_rate = 0.533, Pending_hits = 194, Reservation_fails = 0
L2_cache_bank[5]: Access = 4398, Miss = 2560, Miss_rate = 0.582, Pending_hits = 252, Reservation_fails = 0
L2_cache_bank[6]: Access = 5168, Miss = 2766, Miss_rate = 0.535, Pending_hits = 168, Reservation_fails = 0
L2_cache_bank[7]: Access = 4394, Miss = 2560, Miss_rate = 0.583, Pending_hits = 276, Reservation_fails = 0
L2_cache_bank[8]: Access = 5160, Miss = 2764, Miss_rate = 0.536, Pending_hits = 176, Reservation_fails = 0
L2_cache_bank[9]: Access = 4349, Miss = 2560, Miss_rate = 0.589, Pending_hits = 234, Reservation_fails = 0
L2_cache_bank[10]: Access = 5168, Miss = 2766, Miss_rate = 0.535, Pending_hits = 164, Reservation_fails = 0
L2_cache_bank[11]: Access = 4392, Miss = 2560, Miss_rate = 0.583, Pending_hits = 244, Reservation_fails = 0
L2_cache_bank[12]: Access = 5183, Miss = 2762, Miss_rate = 0.533, Pending_hits = 166, Reservation_fails = 0
L2_cache_bank[13]: Access = 4421, Miss = 2560, Miss_rate = 0.579, Pending_hits = 247, Reservation_fails = 0
L2_cache_bank[14]: Access = 5150, Miss = 2756, Miss_rate = 0.535, Pending_hits = 143, Reservation_fails = 0
L2_cache_bank[15]: Access = 4385, Miss = 2560, Miss_rate = 0.584, Pending_hits = 252, Reservation_fails = 0
L2_cache_bank[16]: Access = 2712, Miss = 84, Miss_rate = 0.031, Pending_hits = 4, Reservation_fails = 0
L2_cache_bank[17]: Access = 2208, Miss = 0, Miss_rate = 0.000, Pending_hits = 0, Reservation_fails = 0
L2_cache_bank[18]: Access = 2662, Miss = 74, Miss_rate = 0.028, Pending_hits = 6, Reservation_fails = 0
L2_cache_bank[19]: Access = 2219, Miss = 0, Miss_rate = 0.000, Pending_hits = 0, Reservation_fails = 0
L2_cache_bank[20]: Access = 2717, Miss = 86, Miss_rate = 0.032, Pending_hits = 4, Reservation_fails = 0
L2_cache_bank[21]: Access = 2176, Miss = 0, Miss_rate = 0.000, Pending_hits = 0, Reservation_fails = 0
L2_cache_bank[22]: Access = 2747, Miss = 100, Miss_rate = 0.036, Pending_hits = 5, Reservation_fails = 0
L2_cache_bank[23]: Access = 2204, Miss = 0, Miss_rate = 0.000, Pending_hits = 0, Reservation_fails = 0
L2_cache_bank[24]: Access = 2728, Miss = 74, Miss_rate = 0.027, Pending_hits = 2, Reservation_fails = 0
L2_cache_bank[25]: Access = 2202, Miss = 0, Miss_rate = 0.000, Pending_hits = 0, Reservation_fails = 0
L2_cache_bank[26]: Access = 2712, Miss = 74, Miss_rate = 0.027, Pending_hits = 5, Reservation_fails = 0
L2_cache_bank[27]: Access = 2213, Miss = 0, Miss_rate = 0.000, Pending_hits = 0, Reservation_fails = 0
L2_cache_bank[28]: Access = 2718, Miss = 72, Miss_rate = 0.026, Pending_hits = 5, Reservation_fails = 0
L2_cache_bank[29]: Access = 2210, Miss = 0, Miss_rate = 0.000, Pending_hits = 0, Reservation_fails = 0
L2_cache_bank[30]: Access = 2712, Miss = 72, Miss_rate = 0.027, Pending_hits = 1, Reservation_fails = 0
L2_cache_bank[31]: Access = 2166, Miss = 0, Miss_rate = 0.000, Pending_hits = 0, Reservation_fails = 0
L2_cache_bank[32]: Access = 2606, Miss = 24, Miss_rate = 0.009, Pending_hits = 0, Reservation_fails = 0
L2_cache_bank[33]: Access = 2211, Miss = 0, Miss_rate = 0.000, Pending_hits = 0, Reservation_fails = 0
L2_cache_bank[34]: Access = 2569, Miss = 24, Miss_rate = 0.009, Pending_hits = 0, Reservation_fails = 0
L2_cache_bank[35]: Access = 2181, Miss = 0, Miss_rate = 0.000, Pending_hits = 0, Reservation_fails = 0
L2_cache_bank[36]: Access = 2589, Miss = 26, Miss_rate = 0.010, Pending_hits = 3, Reservation_fails = 0
L2_cache_bank[37]: Access = 2184, Miss = 0, Miss_rate = 0.000, Pending_hits = 0, Reservation_fails = 0
L2_cache_bank[38]: Access = 2590, Miss = 24, Miss_rate = 0.009, Pending_hits = 1, Reservation_fails = 0
L2_cache_bank[39]: Access = 2177, Miss = 0, Miss_rate = 0.000, Pending_hits = 0, Reservation_fails = 0
L2_cache_bank[40]: Access = 2633, Miss = 24, Miss_rate = 0.009, Pending_hits = 1, Reservation_fails = 0
L2_cache_bank[41]: Access = 2212, Miss = 0, Miss_rate = 0.000, Pending_hits = 0, Reservation_fails = 0
L2_cache_bank[42]: Access = 2580, Miss = 24, Miss_rate = 0.009, Pending_hits = 2, Reservation_fails = 0
L2_cache_bank[43]: Access = 2202, Miss = 0, Miss_rate = 0.000, Pending_hits = 0, Reservation_fails = 0
L2_cache_bank[44]: Access = 2580, Miss = 26, Miss_rate = 0.010, Pending_hits = 2, Reservation_fails = 0
L2_cache_bank[45]: Access = 2173, Miss = 0, Miss_rate = 0.000, Pending_hits = 0, Reservation_fails = 0
L2_cache_bank[46]: Access = 2608, Miss = 24, Miss_rate = 0.009, Pending_hits = 2, Reservation_fails = 0
L2_cache_bank[47]: Access = 2180, Miss = 0, Miss_rate = 0.000, Pending_hits = 0, Reservation_fails = 0
L2_total_cache_accesses = 154009
L2_total_cache_misses = 43424
L2_total_cache_miss_rate = 0.2820
L2_total_cache_pending_hits = 3417
L2_total_cache_reservation_fails = 0
L2_total_cache_breakdown:
	L2_cache_stats_breakdown[GLOBAL_ACC_R][HIT] = 100907
	L2_cache_stats_breakdown[GLOBAL_ACC_R][HIT_RESERVED] = 3417
	L2_cache_stats_breakdown[GLOBAL_ACC_R][MISS] = 10382
	L2_cache_stats_breakdown[GLOBAL_ACC_R][RESERVATION_FAIL] = 0
	L2_cache_stats_breakdown[GLOBAL_ACC_R][SECTOR_MISS] = 31468
	L2_cache_stats_breakdown[LOCAL_ACC_R][HIT] = 0
	L2_cache_stats_breakdown[LOCAL_ACC_R][HIT_RESERVED] = 0
	L2_cache_stats_breakdown[LOCAL_ACC_R][MISS] = 0
	L2_cache_stats_breakdown[LOCAL_ACC_R][RESERVATION_FAIL] = 0
	L2_cache_stats_breakdown[LOCAL_ACC_R][SECTOR_MISS] = 0
	L2_cache_stats_breakdown[CONST_ACC_R][HIT] = 0
	L2_cache_stats_breakdown[CONST_ACC_R][HIT_RESERVED] = 0
	L2_cache_stats_breakdown[CONST_ACC_R][MISS] = 0
	L2_cache_stats_breakdown[CONST_ACC_R][RESERVATION_FAIL] = 0
	L2_cache_stats_breakdown[CONST_ACC_R][SECTOR_MISS] = 0
	L2_cache_stats_breakdown[TEXTURE_ACC_R][HIT] = 0
	L2_cache_stats_breakdown[TEXTURE_ACC_R][HIT_RESERVED] = 0
	L2_cache_stats_breakdown[TEXTURE_ACC_R][MISS] = 0
	L2_cache_stats_breakdown[TEXTURE_ACC_R][RESERVATION_FAIL] = 0
	L2_cache_stats_breakdown[TEXTURE_ACC_R][SECTOR_MISS] = 0
	L2_cache_stats_breakdown[GLOBAL_ACC_W][HIT] = 6261
	L2_cache_stats_breakdown[GLOBAL_ACC_W][HIT_RESERVED] = 0
	L2_cache_stats_breakdown[GLOBAL_ACC_W][MISS] = 313
	L2_cache_stats_breakdown[GLOBAL_ACC_W][RESERVATION_FAIL] = 0
	L2_cache_stats_breakdown[GLOBAL_ACC_W][SECTOR_MISS] = 1261
	L2_cache_stats_breakdown[LOCAL_ACC_W][HIT] = 0
	L2_cache_stats_breakdown[LOCAL_ACC_W][HIT_RESERVED] = 0
	L2_cache_stats_breakdown[LOCAL_ACC_W][MISS] = 0
	L2_cache_stats_breakdown[LOCAL_ACC_W][RESERVATION_FAIL] = 0
	L2_cache_stats_breakdown[LOCAL_ACC_W][SECTOR_MISS] = 0
	L2_cache_stats_breakdown[L1_WRBK_ACC][HIT] = 0
	L2_cache_stats_breakdown[L1_WRBK_ACC][HIT_RESERVED] = 0
	L2_cache_stats_breakdown[L1_WRBK_ACC][MISS] = 0
	L2_cache_stats_breakdown[L1_WRBK_ACC][RESERVATION_FAIL] = 0
	L2_cache_stats_breakdown[L1_WRBK_ACC][SECTOR_MISS] = 0
	L2_cache_stats_breakdown[L2_WRBK_ACC][HIT] = 0
	L2_cache_stats_breakdown[L2_WRBK_ACC][HIT_RESERVED] = 0
	L2_cache_stats_breakdown[L2_WRBK_ACC][MISS] = 0
	L2_cache_stats_breakdown[L2_WRBK_ACC][RESERVATION_FAIL] = 0
	L2_cache_stats_breakdown[L2_WRBK_ACC][SECTOR_MISS] = 0
	L2_cache_stats_breakdown[INST_ACC_R][HIT] = 0
	L2_cache_stats_breakdown[INST_ACC_R][HIT_RESERVED] = 0
	L2_cache_stats_breakdown[INST_ACC_R][MISS] = 0
	L2_cache_stats_breakdown[INST_ACC_R][RESERVATION_FAIL] = 0
	L2_cache_stats_breakdown[INST_ACC_R][SECTOR_MISS] = 0
	L2_cache_stats_breakdown[L1_WR_ALLOC_R][HIT] = 0
	L2_cache_stats_breakdown[L1_WR_ALLOC_R][HIT_RESERVED] = 0
	L2_cache_stats_breakdown[L1_WR_ALLOC_R][MISS] = 0
	L2_cache_stats_breakdown[L1_WR_ALLOC_R][RESERVATION_FAIL] = 0
	L2_cache_stats_breakdown[L1_WR_ALLOC_R][SECTOR_MISS] = 0
	L2_cache_stats_breakdown[L2_WR_ALLOC_R][HIT] = 0
	L2_cache_stats_breakdown[L2_WR_ALLOC_R][HIT_RESERVED] = 0
	L2_cache_stats_breakdown[L2_WR_ALLOC_R][MISS] = 0
	L2_cache_stats_breakdown[L2_WR_ALLOC_R][RESERVATION_FAIL] = 0
	L2_cache_stats_breakdown[L2_WR_ALLOC_R][SECTOR_MISS] = 0
	L2_cache_stats_breakdown[GLOBAL_ACC_R][TOTAL_ACCESS] = 146174
	L2_cache_stats_breakdown[GLOBAL_ACC_W][TOTAL_ACCESS] = 7835
L2_total_cache_reservation_fail_breakdown:
L2_cache_data_port_util = 0.035
L2_cache_fill_port_util = 0.014

icnt_total_pkts_mem_to_simt=154009
icnt_total_pkts_simt_to_mem=154009
LD_mem_lat_dist  0 0 0 0 0 0 0 0 0 0 0 0 0 0 0 0 0 0 0 0 0 0 0 0 0 0 0
ST_mem_lat_dist  0 0 0 0 0 0 0 0 0 0 0 0 0 0 0 0 0 0 0 0 0 0 0 0 0 0 0
----------------------------Interconnect-DETAILS--------------------------------
Req_Network_injected_packets_num = 154009
Req_Network_cycles = 63069
Req_Network_injected_packets_per_cycle =       2.4419 
Req_Network_conflicts_per_cycle =       0.6239
Req_Network_conflicts_per_cycle_util =       0.8195
Req_Bank_Level_Parallism =       3.2075
Req_Network_in_buffer_full_per_cycle =       0.0000
Req_Network_in_buffer_avg_util =       0.2379
Req_Network_out_buffer_full_per_cycle =       0.0000
Req_Network_out_buffer_avg_util =       0.0509

Reply_Network_injected_packets_num = 154009
Reply_Network_cycles = 63069
Reply_Network_injected_packets_per_cycle =        2.4419
Reply_Network_conflicts_per_cycle =        0.5867
Reply_Network_conflicts_per_cycle_util =       0.7427
Reply_Bank_Level_Parallism =       3.0912
Reply_Network_in_buffer_full_per_cycle =       0.0000
Reply_Network_in_buffer_avg_util =       0.0323
Reply_Network_out_buffer_full_per_cycle =       0.0000
Reply_Network_out_buffer_avg_util =       0.0610
----------------------------END-of-Interconnect-DETAILS-------------------------


gpgpu_simulation_time = 0 days, 0 hrs, 3 min, 42 sec (222 sec)
gpgpu_simulation_rate = 283394 (inst/sec)
gpgpu_simulation_rate = 284 (cycle/sec)
gpgpu_silicon_slowdown = 4225352x
GPGPU-Sim: synchronize waiting for inactive GPU simulation
GPGPU-Sim API: Stream Manager State
GPGPU-Sim: detected inactive GPU simulation thread
GPGPU-Sim: *** exit detected ***
