

        *** GPGPU-Sim Simulator Version 4.0.0  [build gpgpu-sim_git-commit-90ec3399763d7c8512cfe7dc193473086c38ca38_modified_0.0] ***


GPGPU-Sim PTX: simulation mode 0 (can change with PTX_SIM_MODE_FUNC environment variable:
               1=functional simulation only, 0=detailed performance simulator)
GPGPU-Sim PTX: overriding embedded ptx with ptx file (PTX_SIM_USE_PTX_FILE is set)
GPGPU-Sim: Configuration options:

-save_embedded_ptx                      0 # saves ptx files embedded in binary as <n>.ptx
-keep                                   0 # keep intermediate files created by GPGPU-Sim when interfacing with external programs
-gpgpu_ptx_save_converted_ptxplus                    0 # Saved converted ptxplus to a file
-gpgpu_occupancy_sm_number                   62 # The SM number to pass to ptxas when getting register usage for computing GPU occupancy. This parameter is required in the config.
-ptx_opcode_latency_int      4,13,4,5,145,32 # Opcode latencies for integers <ADD,MAX,MUL,MAD,DIV,SHFL>Default 1,1,19,25,145,32
-ptx_opcode_latency_fp          4,13,4,5,39 # Opcode latencies for single precision floating points <ADD,MAX,MUL,MAD,DIV>Default 1,1,1,1,30
-ptx_opcode_latency_dp         8,19,8,8,330 # Opcode latencies for double precision floating points <ADD,MAX,MUL,MAD,DIV>Default 8,8,8,8,335
-ptx_opcode_latency_sfu                  200 # Opcode latencies for SFU instructionsDefault 8
-ptx_opcode_latency_tesnor                   64 # Opcode latencies for Tensor instructionsDefault 64
-ptx_opcode_initiation_int          1,1,1,1,4,4 # Opcode initiation intervals for integers <ADD,MAX,MUL,MAD,DIV,SHFL>Default 1,1,4,4,32,4
-ptx_opcode_initiation_fp            1,2,1,1,4 # Opcode initiation intervals for single precision floating points <ADD,MAX,MUL,MAD,DIV>Default 1,1,1,1,5
-ptx_opcode_initiation_dp          2,8,8,8,130 # Opcode initiation intervals for double precision floating points <ADD,MAX,MUL,MAD,DIV>Default 8,8,8,8,130
-ptx_opcode_initiation_sfu                    2 # Opcode initiation intervals for sfu instructionsDefault 8
-ptx_opcode_initiation_tensor                   64 # Opcode initiation intervals for tensor instructionsDefault 64
-cdp_latency         7200,8000,100,12000,1600 # CDP API latency <cudaStreamCreateWithFlags, cudaGetParameterBufferV2_init_perWarp, cudaGetParameterBufferV2_perKernel, cudaLaunchDeviceV2_init_perWarp, cudaLaunchDevicV2_perKernel>Default 7200,8000,100,12000,1600
-network_mode                           1 # Interconnection network mode
-inter_config_file   config_kepler_islip.icnt # Interconnection network config file
-icnt_in_buffer_limit                   64 # in_buffer_limit
-icnt_out_buffer_limit                   64 # out_buffer_limit
-icnt_subnets                           2 # subnets
-icnt_arbiter_algo                      1 # arbiter_algo
-icnt_verbose                           0 # inct_verbose
-icnt_grant_cycles                      1 # grant_cycles
-gpgpu_ptx_use_cuobjdump                    1 # Use cuobjdump to extract ptx and sass from binaries
-gpgpu_experimental_lib_support                    0 # Try to extract code from cuda libraries [Broken because of unknown cudaGetExportTable]
-checkpoint_option                      0 #  checkpointing flag (0 = no checkpoint)
-checkpoint_kernel                      1 #  checkpointing during execution of which kernel (1- 1st kernel)
-checkpoint_CTA                         0 #  checkpointing after # of CTA (< less than total CTA)
-resume_option                          0 #  resume flag (0 = no resume)
-resume_kernel                          0 #  Resume from which kernel (1= 1st kernel)
-resume_CTA                             0 #  resume from which CTA 
-checkpoint_CTA_t                       0 #  resume from which CTA 
-checkpoint_insn_Y                      0 #  resume from which CTA 
-gpgpu_ptx_convert_to_ptxplus                    0 # Convert SASS (native ISA) to ptxplus and run ptxplus
-gpgpu_ptx_force_max_capability                   35 # Force maximum compute capability
-gpgpu_ptx_inst_debug_to_file                    0 # Dump executed instructions' debug information to file
-gpgpu_ptx_inst_debug_file       inst_debug.txt # Executed instructions' debug output file
-gpgpu_ptx_inst_debug_thread_uid                    1 # Thread UID for executed instructions' debug output
-gpgpu_simd_model                       1 # 1 = post-dominator
-gpgpu_shader_core_pipeline              2048:32 # shader core pipeline config, i.e., {<nthread>:<warpsize>}
-gpgpu_tex_cache:l1  N:16:128:24,L:R:m:N:L,T:128:4,128:2 # per-shader L1 texture cache  (READ-ONLY) config  {<nsets>:<bsize>:<assoc>,<rep>:<wr>:<alloc>:<wr_alloc>,<mshr>:<N>:<merge>,<mq>:<rf>}
-gpgpu_const_cache:l1 N:128:64:2,L:R:f:N:L,S:2:64,4 # per-shader L1 constant memory cache  (READ-ONLY) config  {<nsets>:<bsize>:<assoc>,<rep>:<wr>:<alloc>:<wr_alloc>,<mshr>:<N>:<merge>,<mq>} 
-gpgpu_cache:il1     N:8:128:4,L:R:f:N:L,S:2:48,4 # shader L1 instruction cache config  {<nsets>:<bsize>:<assoc>,<rep>:<wr>:<alloc>:<wr_alloc>,<mshr>:<N>:<merge>,<mq>} 
-gpgpu_cache:dl1     S:4:128:32,L:L:s:N:L,A:256:8,16:0,32 # per-shader L1 data cache config  {<nsets>:<bsize>:<assoc>,<rep>:<wr>:<alloc>:<wr_alloc>,<mshr>:<N>:<merge>,<mq> | none}
-gpgpu_l1_banks                         1 # The number of L1 cache banks
-gpgpu_l1_banks_byte_interleaving                   32 # l1 banks byte interleaving granularity
-gpgpu_l1_banks_hashing_function                    0 # l1 banks hashing function
-gpgpu_l1_latency                      82 # L1 Hit Latency
-gpgpu_smem_latency                     3 # smem Latency
-gpgpu_cache:dl1PrefL1 S:4:128:96,L:L:s:N:L,A:256:8,16:0,32 # per-shader L1 data cache config  {<nsets>:<bsize>:<assoc>,<rep>:<wr>:<alloc>:<wr_alloc>,<mshr>:<N>:<merge>,<mq> | none}
-gpgpu_cache:dl1PrefShared S:4:128:32,L:L:s:N:L,A:256:8,16:0,32 # per-shader L1 data cache config  {<nsets>:<bsize>:<assoc>,<rep>:<wr>:<alloc>:<wr_alloc>,<mshr>:<N>:<merge>,<mq> | none}
-gpgpu_gmem_skip_L1D                    1 # global memory access skip L1D cache (implements -Xptxas -dlcm=cg, default=no skip)
-gpgpu_perfect_mem                      0 # enable perfect memory mode (no cache miss)
-n_regfile_gating_group                    4 # group of lanes that should be read/written together)
-gpgpu_clock_gated_reg_file                    0 # enable clock gated reg file for power calculations
-gpgpu_clock_gated_lanes                    0 # enable clock gated lanes for power calculations
-gpgpu_shader_registers                65536 # Number of registers per shader core. Limits number of concurrent CTAs. (default 8192)
-gpgpu_registers_per_block                 8192 # Maximum number of registers per CTA. (default 8192)
-gpgpu_ignore_resources_limitation                    1 # gpgpu_ignore_resources_limitation (default 0)
-gpgpu_shader_cta                      16 # Maximum number of concurrent CTAs in shader (default 8)
-gpgpu_num_cta_barriers                   16 # Maximum number of named barriers per CTA (default 16)
-gpgpu_n_clusters                      14 # number of processing clusters
-gpgpu_n_cores_per_cluster                    1 # number of simd cores per cluster
-gpgpu_n_cluster_ejection_buffer_size                   32 # number of packets in ejection buffer
-gpgpu_n_ldst_response_buffer_size                    2 # number of response packets in ld/st unit ejection buffer
-gpgpu_shmem_per_block                49152 # Size of shared memory per thread block or CTA (default 48kB)
-gpgpu_shmem_size                   49152 # Size of shared memory per shader core (default 16kB)
-gpgpu_adaptive_cache_config                    0 # adaptive_cache_config
-gpgpu_shmem_sizeDefault                49152 # Size of shared memory per shader core (default 16kB)
-gpgpu_shmem_size_PrefL1                16384 # Size of shared memory per shader core (default 16kB)
-gpgpu_shmem_size_PrefShared                49152 # Size of shared memory per shader core (default 16kB)
-gpgpu_shmem_num_banks                   32 # Number of banks in the shared memory in each shader core (default 16)
-gpgpu_shmem_limited_broadcast                    0 # Limit shared memory to do one broadcast per cycle (default on)
-gpgpu_shmem_warp_parts                    1 # Number of portions a warp is divided into for shared memory bank conflict check 
-gpgpu_mem_unit_ports                    1 # The number of memory transactions allowed per core cycle
-gpgpu_shmem_warp_parts                    1 # Number of portions a warp is divided into for shared memory bank conflict check 
-gpgpu_warpdistro_shader                   -1 # Specify which shader core to collect the warp size distribution from
-gpgpu_warp_issue_shader                    0 # Specify which shader core to collect the warp issue distribution from
-gpgpu_local_mem_map                    1 # Mapping from local memory space address to simulated GPU physical address space (default = enabled)
-gpgpu_num_reg_banks                   16 # Number of register banks (default = 8)
-gpgpu_reg_bank_use_warp_id                    0 # Use warp ID in mapping registers to banks (default = off)
-gpgpu_sub_core_model                    0 # Sub Core Volta/Pascal model (default = off)
-gpgpu_enable_specialized_operand_collector                    1 # enable_specialized_operand_collector
-gpgpu_operand_collector_num_units_sp                   12 # number of collector units (default = 4)
-gpgpu_operand_collector_num_units_dp                    6 # number of collector units (default = 0)
-gpgpu_operand_collector_num_units_sfu                    6 # number of collector units (default = 4)
-gpgpu_operand_collector_num_units_int                    0 # number of collector units (default = 0)
-gpgpu_operand_collector_num_units_tensor_core                    4 # number of collector units (default = 4)
-gpgpu_operand_collector_num_units_mem                    8 # number of collector units (default = 2)
-gpgpu_operand_collector_num_units_gen                    0 # number of collector units (default = 0)
-gpgpu_operand_collector_num_in_ports_sp                    2 # number of collector unit in ports (default = 1)
-gpgpu_operand_collector_num_in_ports_dp                    1 # number of collector unit in ports (default = 0)
-gpgpu_operand_collector_num_in_ports_sfu                    2 # number of collector unit in ports (default = 1)
-gpgpu_operand_collector_num_in_ports_int                    0 # number of collector unit in ports (default = 0)
-gpgpu_operand_collector_num_in_ports_tensor_core                    1 # number of collector unit in ports (default = 1)
-gpgpu_operand_collector_num_in_ports_mem                    1 # number of collector unit in ports (default = 1)
-gpgpu_operand_collector_num_in_ports_gen                    0 # number of collector unit in ports (default = 0)
-gpgpu_operand_collector_num_out_ports_sp                    2 # number of collector unit in ports (default = 1)
-gpgpu_operand_collector_num_out_ports_dp                    1 # number of collector unit in ports (default = 0)
-gpgpu_operand_collector_num_out_ports_sfu                    2 # number of collector unit in ports (default = 1)
-gpgpu_operand_collector_num_out_ports_int                    0 # number of collector unit in ports (default = 0)
-gpgpu_operand_collector_num_out_ports_tensor_core                    1 # number of collector unit in ports (default = 1)
-gpgpu_operand_collector_num_out_ports_mem                    1 # number of collector unit in ports (default = 1)
-gpgpu_operand_collector_num_out_ports_gen                    0 # number of collector unit in ports (default = 0)
-gpgpu_coalesce_arch                   35 # Coalescing arch (GT200 = 13, Fermi = 20)
-gpgpu_num_sched_per_core                    4 # Number of warp schedulers per core
-gpgpu_max_insn_issue_per_warp                    2 # Max number of instructions that can be issued per warp in one cycle by scheduler (either 1 or 2)
-gpgpu_dual_issue_diff_exec_units                    0 # should dual issue use two different execution unit resources (Default = 1)
-gpgpu_simt_core_sim_order                    1 # Select the simulation order of cores in a cluster (0=Fix, 1=Round-Robin)
-gpgpu_pipeline_widths 6,4,0,2,1,6,4,0,2,1,12 # Pipeline widths ID_OC_SP,ID_OC_DP,ID_OC_INT,ID_OC_SFU,ID_OC_MEM,OC_EX_SP,OC_EX_DP,OC_EX_INT,OC_EX_SFU,OC_EX_MEM,EX_WB,ID_OC_TENSOR_CORE,OC_EX_TENSOR_CORE
-gpgpu_tensor_core_avail                    0 # Tensor Core Available (default=0)
-gpgpu_num_sp_units                     6 # Number of SP units (default=1)
-gpgpu_num_dp_units                     4 # Number of DP units (default=0)
-gpgpu_num_int_units                    0 # Number of INT units (default=0)
-gpgpu_num_sfu_units                    2 # Number of SF units (default=1)
-gpgpu_num_tensor_core_units                    0 # Number of tensor_core units (default=1)
-gpgpu_num_mem_units                    1 # Number if ldst units (default=1) WARNING: not hooked up to anything
-gpgpu_scheduler     two_level_active:6:0:1 # Scheduler configuration: < lrr | gto | two_level_active > If two_level_active:<num_active_warps>:<inner_prioritization>:<outer_prioritization>For complete list of prioritization values see shader.h enum scheduler_prioritization_typeDefault: gto
-gpgpu_concurrent_kernel_sm                    0 # Support concurrent kernels on a SM (default = disabled)
-gpgpu_perfect_inst_const_cache                    0 # perfect inst and const cache mode, so all inst and const hits in the cache(default = disabled)
-gpgpu_inst_fetch_throughput                    8 # the number of fetched intruction per warp each cycle
-gpgpu_reg_file_port_throughput                    2 # the number ports of the register file
-specialized_unit_1         0,4,4,4,4,BRA # specialized unit config {<enabled>,<num_units>:<latency>:<initiation>,<ID_OC_SPEC>:<OC_EX_SPEC>,<NAME>}
-specialized_unit_2         0,4,4,4,4,BRA # specialized unit config {<enabled>,<num_units>:<latency>:<initiation>,<ID_OC_SPEC>:<OC_EX_SPEC>,<NAME>}
-specialized_unit_3         0,4,4,4,4,BRA # specialized unit config {<enabled>,<num_units>:<latency>:<initiation>,<ID_OC_SPEC>:<OC_EX_SPEC>,<NAME>}
-specialized_unit_4         0,4,4,4,4,BRA # specialized unit config {<enabled>,<num_units>:<latency>:<initiation>,<ID_OC_SPEC>:<OC_EX_SPEC>,<NAME>}
-specialized_unit_5         0,4,4,4,4,BRA # specialized unit config {<enabled>,<num_units>:<latency>:<initiation>,<ID_OC_SPEC>:<OC_EX_SPEC>,<NAME>}
-specialized_unit_6         0,4,4,4,4,BRA # specialized unit config {<enabled>,<num_units>:<latency>:<initiation>,<ID_OC_SPEC>:<OC_EX_SPEC>,<NAME>}
-specialized_unit_7         0,4,4,4,4,BRA # specialized unit config {<enabled>,<num_units>:<latency>:<initiation>,<ID_OC_SPEC>:<OC_EX_SPEC>,<NAME>}
-specialized_unit_8         0,4,4,4,4,BRA # specialized unit config {<enabled>,<num_units>:<latency>:<initiation>,<ID_OC_SPEC>:<OC_EX_SPEC>,<NAME>}
-gpgpu_perf_sim_memcpy                    1 # Fill the L2 cache on memcpy
-gpgpu_simple_dram_model                    0 # simple_dram_model with fixed latency and BW
-gpgpu_dram_scheduler                    1 # 0 = fifo, 1 = FR-FCFS (defaul)
-gpgpu_dram_partition_queues          32:32:32:32 # i2$:$2d:d2$:$2i
-l2_ideal                               0 # Use a ideal L2 cache that always hit
-gpgpu_cache:dl2     S:32:128:16,L:B:m:L:P,A:256:64,16:0,32 # unified banked L2 data cache config  {<nsets>:<bsize>:<assoc>,<rep>:<wr>:<alloc>:<wr_alloc>,<mshr>:<N>:<merge>,<mq>}
-gpgpu_cache:dl2_texture_only                    0 # L2 cache used for texture only
-gpgpu_n_mem                           12 # number of memory modules (e.g. memory controllers) in gpu
-gpgpu_n_sub_partition_per_mchannel                    2 # number of memory subpartition in each memory module
-gpgpu_n_mem_per_ctrlr                    1 # number of memory chips per memory controller
-gpgpu_memlatency_stat                   14 # track and display latency statistics 0x2 enables MC, 0x4 enables queue logs
-gpgpu_frfcfs_dram_sched_queue_size                   64 # 0 = unlimited (default); # entries per chip
-gpgpu_dram_return_queue_size                   64 # 0 = unlimited (default); # entries per chip
-gpgpu_dram_buswidth                    4 # default = 4 bytes (8 bytes per cycle at DDR)
-gpgpu_dram_burst_length                    8 # Burst length of each DRAM request (default = 4 data bus cycle)
-dram_data_command_freq_ratio                    4 # Frequency ratio between DRAM data bus and command bus (default = 2 times, i.e. DDR)
-gpgpu_dram_timing_opt nbk=16:CCD=2:RRD=8:RCD=16:RAS=37:RP=16:RC=52: CL=16:WL=6:CDLR=7:WR=16:nbkgrp=4:CCDL=4:RTPL=3 # DRAM timing parameters = {nbk:tCCD:tRRD:tRCD:tRAS:tRP:tRC:CL:WL:tCDLR:tWR:nbkgrp:tCCDL:tRTPL}
-gpgpu_l2_rop_latency                  120 # ROP queue latency (default 85)
-dram_latency                         100 # DRAM latency (default 30)
-dram_dual_bus_interface                    0 # dual_bus_interface (default = 0) 
-dram_bnk_indexing_policy                    0 # dram_bnk_indexing_policy (0 = normal indexing, 1 = Xoring with the higher bits) (Default = 0)
-dram_bnkgrp_indexing_policy                    1 # dram_bnkgrp_indexing_policy (0 = take higher bits, 1 = take lower bits) (Default = 0)
-dram_seperate_write_queue_enable                    0 # Seperate_Write_Queue_Enable
-dram_write_queue_size             32:28:16 # Write_Queue_Size
-dram_elimnate_rw_turnaround                    0 # elimnate_rw_turnaround i.e set tWTR and tRTW = 0
-icnt_flit_size                        40 # icnt_flit_size
-gpgpu_mem_addr_mapping dramid@8;00000000.00000000.00000000.00000000.0000RRRR.RRRRRRRR.RBBBCCCC.BCCSSSSS # mapping memory address to dram model {dramid@<start bit>;<memory address map>}
-gpgpu_mem_addr_test                    0 # run sweep test to check address mapping for aliased address
-gpgpu_mem_address_mask                    1 # 0 = old addressing mask, 1 = new addressing mask, 2 = new add. mask + flipped bank sel and chip sel bits
-gpgpu_memory_partition_indexing                    0 # 0 = no indexing, 1 = bitwise xoring, 2 = IPoly, 3 = custom indexing
-gpuwattch_xml_file         gpuwattch.xml # GPUWattch XML file
-power_simulation_enabled                    1 # Turn on power simulator (1=On, 0=Off)
-power_per_cycle_dump                    0 # Dump detailed power output each cycle
-power_trace_enabled                    0 # produce a file for the power trace (1=On, 0=Off)
-power_trace_zlevel                     6 # Compression level of the power trace output log (0=no comp, 9=highest)
-steady_power_levels_enabled                    0 # produce a file for the steady power levels (1=On, 0=Off)
-steady_state_definition                  8:4 # allowed deviation:number of samples
-gpgpu_max_cycle                        0 # terminates gpu simulation early (0 = no limit)
-gpgpu_max_insn                         0 # terminates gpu simulation early (0 = no limit)
-gpgpu_max_cta                          0 # terminates gpu simulation early (0 = no limit)
-gpgpu_max_completed_cta                    0 # terminates gpu simulation early (0 = no limit)
-gpgpu_runtime_stat                   500 # display runtime statistics such as dram utilization {<freq>:<flag>}
-liveness_message_freq                    1 # Minimum number of seconds between simulation liveness messages (0 = always print)
-gpgpu_compute_capability_major                    3 # Major compute capability version number
-gpgpu_compute_capability_minor                    5 # Minor compute capability version number
-gpgpu_flush_l1_cache                    1 # Flush L1 cache at the end of each kernel call
-gpgpu_flush_l2_cache                    0 # Flush L2 cache at the end of each kernel call
-gpgpu_deadlock_detect                    1 # Stop the simulation at deadlock (1=on (default), 0=off)
-gpgpu_ptx_instruction_classification                    0 # if enabled will classify ptx instruction types per kernel (Max 255 kernels now)
-gpgpu_ptx_sim_mode                     0 # Select between Performance (default) or Functional simulation (1)
-gpgpu_clock_domains 837.0:837.0:837.0:1502.0 # Clock Domain Frequencies in MhZ {<Core Clock>:<ICNT Clock>:<L2 Clock>:<DRAM Clock>}
-gpgpu_max_concurrent_kernel                    8 # maximum kernels that can run concurrently on GPU
-gpgpu_cflog_interval                    0 # Interval between each snapshot in control flow logger
-visualizer_enabled                     0 # Turn on visualizer output (1=On, 0=Off)
-visualizer_outputfile                 NULL # Specifies the output log file for visualizer
-visualizer_zlevel                      6 # Compression level of the visualizer output log (0=no comp, 9=highest)
-gpgpu_stack_size_limit                 1024 # GPU thread stack size
-gpgpu_heap_size_limit              8388608 # GPU malloc heap size 
-gpgpu_runtime_sync_depth_limit                    2 # GPU device runtime synchronize depth
-gpgpu_runtime_pending_launch_count_limit                 2048 # GPU device runtime pending launch count
-trace_enabled                          0 # Turn on traces
-trace_components                    none # comma seperated list of traces to enable. Complete list found in trace_streams.tup. Default none
-trace_sampling_core                    0 # The core which is printed using CORE_DPRINTF. Default 0
-trace_sampling_memory_partition                   -1 # The memory partition which is printed using MEMPART_DPRINTF. Default -1 (i.e. all)
-enable_ptx_file_line_stats                    1 # Turn on PTX source line statistic profiling. (1 = On)
-ptx_line_stats_filename gpgpu_inst_stats.txt # Output file for PTX source line statistics.
-gpgpu_kernel_launch_latency                    0 # Kernel launch latency in cycles. Default: 0
-gpgpu_cdp_enabled                      0 # Turn on CDP
-gpgpu_TB_launch_latency                    0 # thread block launch latency in cycles. Default: 0
DRAM Timing Options:
nbk                                    16 # number of banks
CCD                                     2 # column to column delay
RRD                                     8 # minimal delay between activation of rows in different banks
RCD                                    16 # row to column delay
RAS                                    37 # time needed to activate row
RP                                     16 # time needed to precharge (deactivate) row
RC                                     52 # row cycle time
CDLR                                    7 # switching from write to read (changes tWTR)
WR                                     16 # last data-in to row precharge
CL                                     16 # CAS latency
WL                                      6 # Write latency
nbkgrp                                  4 # number of bank groups
CCDL                                    4 # column to column delay between accesses to different bank groups
RTPL                                    3 # read to precharge delay between accesses to different bank groups
Total number of memory sub partition = 24
addr_dec_mask[CHIP]  = 0000000000000000 	high:64 low:0
addr_dec_mask[BK]    = 0000000000007080 	high:15 low:7
addr_dec_mask[ROW]   = 000000000fff8000 	high:28 low:15
addr_dec_mask[COL]   = 0000000000000f7f 	high:12 low:0
addr_dec_mask[BURST] = 000000000000001f 	high:5 low:0
sub_partition_id_mask = 0000000000000080
GPGPU-Sim uArch: clock freqs: 837000000.000000:837000000.000000:837000000.000000:1502000000.000000
GPGPU-Sim uArch: clock periods: 0.00000000119474313023:0.00000000119474313023:0.00000000119474313023:0.00000000066577896138
*** Initializing Memory Statistics ***
GPGPU-Sim uArch: interconnect node map (shaderID+MemID to icntID)
GPGPU-Sim uArch: Memory nodes ID start from index: 14
GPGPU-Sim uArch:    0   1   2   3   4   5
GPGPU-Sim uArch:    6   7   8   9  10  11
GPGPU-Sim uArch:   12  13  14  15  16  17
GPGPU-Sim uArch:   18  19  20  21  22  23
GPGPU-Sim uArch:   24  25  26  27  28  29
GPGPU-Sim uArch:   30  31  32  33  34  35
GPGPU-Sim uArch:   36  37
GPGPU-Sim uArch: interconnect node reverse map (icntID to shaderID+MemID)
GPGPU-Sim uArch: Memory nodes start from ID: 14
GPGPU-Sim uArch:    0   1   2   3   4   5
GPGPU-Sim uArch:    6   7   8   9  10  11
GPGPU-Sim uArch:   12  13  14  15  16  17
GPGPU-Sim uArch:   18  19  20  21  22  23
GPGPU-Sim uArch:   24  25  26  27  28  29
GPGPU-Sim uArch:   30  31  32  33  34  35
GPGPU-Sim uArch:   36  37
29f48872a1787e159b3edfc3f441b65f  /home/ishan/COA/Lab4/gpu-rodinia/cuda/pathfinder/a.out
Extracting PTX file and ptxas options    1: a.1.sm_52.ptx -arch=sm_52
GPGPU-Sim uArch: performance model initialization complete.
self exe links to: /home/ishan/COA/Lab4/gpu-rodinia/cuda/pathfinder/a.out
self exe links to: /home/ishan/COA/Lab4/gpu-rodinia/cuda/pathfinder/a.out
11.0
GPGPU-Sim PTX: __cudaRegisterFatBinary, fat_cubin_handle = 1, filename=default
self exe links to: /home/ishan/COA/Lab4/gpu-rodinia/cuda/pathfinder/a.out
Running md5sum using "md5sum /home/ishan/COA/Lab4/gpu-rodinia/cuda/pathfinder/a.out "
self exe links to: /home/ishan/COA/Lab4/gpu-rodinia/cuda/pathfinder/a.out
Extracting specific PTX file named a.1.sm_52.ptx 
GPGPU-Sim PTX: __cudaRegisterFunction _Z14dynproc_kerneliPiS_S_iiii : hostFun 0x0x559672277ba4, fat_cubin_handle = 1
GPGPU-Sim PTX: Parsing a.1.sm_52.ptx
GPGPU-Sim PTX: allocating shared region for "_ZZ14dynproc_kerneliPiS_S_iiiiE4prev" from 0x0 to 0x400 (shared memory space)
GPGPU-Sim PTX: allocating shared region for "_ZZ14dynproc_kerneliPiS_S_iiiiE6result" from 0x400 to 0x800 (shared memory space)
GPGPU-Sim PTX: instruction assembly for function '_Z14dynproc_kerneliPiS_S_iiii'...   done.
GPGPU-Sim PTX: finished parsing EMBEDDED .ptx file a.1.sm_52.ptx
GPGPU-Sim PTX: loading globals with explicit initializers... 
GPGPU-Sim PTX: finished loading globals (0 bytes total).
GPGPU-Sim PTX: loading constants with explicit initializers...  done.
GPGPU-Sim PTX: Loading PTXInfo from a.1.sm_52.ptx
GPGPU-Sim PTX: Kernel '_Z14dynproc_kerneliPiS_S_iiii' : regs=18, lmem=0, smem=2048, cmem=368
pyramidHeight: 20
gridSize: [10000]
border:[20]
blockSize: 256
blockGrid:[47]
targetBlock:[216]
GPGPU-Sim PTX: Setting up arguments for 4 bytes starting at 0x7ffce5f3e44c..
GPGPU-Sim PTX: Setting up arguments for 8 bytes starting at 0x7ffce5f3e440..
GPGPU-Sim PTX: Setting up arguments for 8 bytes starting at 0x7ffce5f3e438..
GPGPU-Sim PTX: Setting up arguments for 8 bytes starting at 0x7ffce5f3e430..
GPGPU-Sim PTX: Setting up arguments for 4 bytes starting at 0x7ffce5f3e448..
GPGPU-Sim PTX: Setting up arguments for 4 bytes starting at 0x7ffce5f3e42c..
GPGPU-Sim PTX: Setting up arguments for 4 bytes starting at 0x7ffce5f3e4e0..
GPGPU-Sim PTX: Setting up arguments for 4 bytes starting at 0x7ffce5f3e4e8..

GPGPU-Sim PTX: cudaLaunch for 0x0x559672277ba4 (mode=performance simulation) on stream 0
GPGPU-Sim PTX: finding reconvergence points for '_Z14dynproc_kerneliPiS_S_iiii'...
GPGPU-Sim PTX: Finding dominators for '_Z14dynproc_kerneliPiS_S_iiii'...
GPGPU-Sim PTX: Finding immediate dominators for '_Z14dynproc_kerneliPiS_S_iiii'...
GPGPU-Sim PTX: Finding postdominators for '_Z14dynproc_kerneliPiS_S_iiii'...
GPGPU-Sim PTX: Finding immediate postdominators for '_Z14dynproc_kerneliPiS_S_iiii'...
GPGPU-Sim PTX: pre-decoding instructions for '_Z14dynproc_kerneliPiS_S_iiii'...
GPGPU-Sim PTX: reconvergence points for _Z14dynproc_kerneliPiS_S_iiii...
GPGPU-Sim PTX:  1 (potential) branch divergence @  PC=0x0c0 (a.1.sm_52.ptx:61) @!%p3 bra BB0_2;
GPGPU-Sim PTX:    immediate post dominator      @  PC=0x110 (a.1.sm_52.ptx:75) bar.sync 0;
GPGPU-Sim PTX:  2 (potential) branch divergence @  PC=0x0c8 (a.1.sm_52.ptx:62) bra.uni BB0_1;
GPGPU-Sim PTX:    immediate post dominator      @  PC=0x0d0 (a.1.sm_52.ptx:65) cvta.to.global.u64 %rd4, %rd2;
GPGPU-Sim PTX:  3 (potential) branch divergence @  PC=0x120 (a.1.sm_52.ptx:77) @%p4 bra BB0_10;
GPGPU-Sim PTX:    immediate post dominator      @  PC=0x338 (a.1.sm_52.ptx:157) and.b16 %rs6, %rs8, 255;
GPGPU-Sim PTX:  4 (potential) branch divergence @  PC=0x208 (a.1.sm_52.ptx:109) @!%p12 bra BB0_6;
GPGPU-Sim PTX:    immediate post dominator      @  PC=0x2b8 (a.1.sm_52.ptx:135) bar.sync 0;
GPGPU-Sim PTX:  5 (potential) branch divergence @  PC=0x210 (a.1.sm_52.ptx:110) bra.uni BB0_5;
GPGPU-Sim PTX:    immediate post dominator      @  PC=0x218 (a.1.sm_52.ptx:113) ld.shared.u32 %r70, [%r2];
GPGPU-Sim PTX:  6 (potential) branch divergence @  PC=0x2c8 (a.1.sm_52.ptx:137) @%p15 bra BB0_10;
GPGPU-Sim PTX:    immediate post dominator      @  PC=0x338 (a.1.sm_52.ptx:157) and.b16 %rs6, %rs8, 255;
GPGPU-Sim PTX:  7 (potential) branch divergence @  PC=0x2d8 (a.1.sm_52.ptx:140) @%p16 bra BB0_9;
GPGPU-Sim PTX:    immediate post dominator      @  PC=0x310 (a.1.sm_52.ptx:150) bar.sync 0;
GPGPU-Sim PTX:  8 (potential) branch divergence @  PC=0x330 (a.1.sm_52.ptx:154) @%p17 bra BB0_4;
GPGPU-Sim PTX:    immediate post dominator      @  PC=0x338 (a.1.sm_52.ptx:157) and.b16 %rs6, %rs8, 255;
GPGPU-Sim PTX:  9 (potential) branch divergence @  PC=0x348 (a.1.sm_52.ptx:159) @%p18 bra BB0_12;
GPGPU-Sim PTX:    immediate post dominator      @  PC=0x390 (a.1.sm_52.ptx:171) ret;
GPGPU-Sim PTX: ... end of reconvergence points for _Z14dynproc_kerneliPiS_S_iiii
GPGPU-Sim PTX: ... done pre-decoding instructions for '_Z14dynproc_kerneliPiS_S_iiii'.
GPGPU-Sim PTX: pushing kernel '_Z14dynproc_kerneliPiS_S_iiii' to stream 0, gridDim= (47,1,1) blockDim = (256,1,1) 
GPGPU-Sim uArch: Shader 0 bind to kernel 1 '_Z14dynproc_kerneliPiS_S_iiii'
GPGPU-Sim uArch: CTA/core = 8, limited by: threads
GPGPU-Sim uArch: Shader 1 bind to kernel 1 '_Z14dynproc_kerneliPiS_S_iiii'
GPGPU-Sim uArch: Shader 2 bind to kernel 1 '_Z14dynproc_kerneliPiS_S_iiii'
GPGPU-Sim uArch: Shader 3 bind to kernel 1 '_Z14dynproc_kerneliPiS_S_iiii'
GPGPU-Sim uArch: Shader 4 bind to kernel 1 '_Z14dynproc_kerneliPiS_S_iiii'
GPGPU-Sim uArch: Shader 5 bind to kernel 1 '_Z14dynproc_kerneliPiS_S_iiii'
GPGPU-Sim uArch: Shader 6 bind to kernel 1 '_Z14dynproc_kerneliPiS_S_iiii'
GPGPU-Sim uArch: Shader 7 bind to kernel 1 '_Z14dynproc_kerneliPiS_S_iiii'
GPGPU-Sim uArch: Shader 8 bind to kernel 1 '_Z14dynproc_kerneliPiS_S_iiii'
GPGPU-Sim uArch: Shader 9 bind to kernel 1 '_Z14dynproc_kerneliPiS_S_iiii'
GPGPU-Sim uArch: Shader 10 bind to kernel 1 '_Z14dynproc_kerneliPiS_S_iiii'
GPGPU-Sim uArch: Shader 11 bind to kernel 1 '_Z14dynproc_kerneliPiS_S_iiii'
GPGPU-Sim uArch: Shader 12 bind to kernel 1 '_Z14dynproc_kerneliPiS_S_iiii'
GPGPU-Sim uArch: Shader 13 bind to kernel 1 '_Z14dynproc_kerneliPiS_S_iiii'
Destroy streams for kernel 1: size 0
kernel_name = _Z14dynproc_kerneliPiS_S_iiii 
kernel_launch_uid = 1 
gpu_sim_cycle = 15892
gpu_sim_insn = 12710760
gpu_ipc =     799.8213
gpu_tot_sim_cycle = 15892
gpu_tot_sim_insn = 12710760
gpu_tot_ipc =     799.8213
gpu_tot_issued_cta = 47
gpu_occupancy = 41.7121% 
gpu_tot_occupancy = 41.7121% 
max_total_param_size = 0
gpu_stall_dramfull = 0
gpu_stall_icnt2sh    = 0
partiton_level_parallism =       2.3953
partiton_level_parallism_total  =       2.3953
partiton_level_parallism_util =       3.2306
partiton_level_parallism_util_total  =       3.2306
L2_BW  =      64.7454 GB/Sec
L2_BW_total  =      64.7454 GB/Sec
gpu_total_sim_rate=488875

========= Core cache stats =========
L1I_cache:
	L1I_total_cache_accesses = 225037
	L1I_total_cache_misses = 2503
	L1I_total_cache_miss_rate = 0.0111
	L1I_total_cache_pending_hits = 0
	L1I_total_cache_reservation_fails = 0
L1D_cache:
	L1D_cache_core[0]: Access = 0, Miss = 0, Miss_rate = -nan, Pending_hits = 0, Reservation_fails = 0
	L1D_cache_core[1]: Access = 0, Miss = 0, Miss_rate = -nan, Pending_hits = 0, Reservation_fails = 0
	L1D_cache_core[2]: Access = 0, Miss = 0, Miss_rate = -nan, Pending_hits = 0, Reservation_fails = 0
	L1D_cache_core[3]: Access = 0, Miss = 0, Miss_rate = -nan, Pending_hits = 0, Reservation_fails = 0
	L1D_cache_core[4]: Access = 0, Miss = 0, Miss_rate = -nan, Pending_hits = 0, Reservation_fails = 0
	L1D_cache_core[5]: Access = 0, Miss = 0, Miss_rate = -nan, Pending_hits = 0, Reservation_fails = 0
	L1D_cache_core[6]: Access = 0, Miss = 0, Miss_rate = -nan, Pending_hits = 0, Reservation_fails = 0
	L1D_cache_core[7]: Access = 0, Miss = 0, Miss_rate = -nan, Pending_hits = 0, Reservation_fails = 0
	L1D_cache_core[8]: Access = 0, Miss = 0, Miss_rate = -nan, Pending_hits = 0, Reservation_fails = 0
	L1D_cache_core[9]: Access = 0, Miss = 0, Miss_rate = -nan, Pending_hits = 0, Reservation_fails = 0
	L1D_cache_core[10]: Access = 0, Miss = 0, Miss_rate = -nan, Pending_hits = 0, Reservation_fails = 0
	L1D_cache_core[11]: Access = 0, Miss = 0, Miss_rate = -nan, Pending_hits = 0, Reservation_fails = 0
	L1D_cache_core[12]: Access = 0, Miss = 0, Miss_rate = -nan, Pending_hits = 0, Reservation_fails = 0
	L1D_cache_core[13]: Access = 0, Miss = 0, Miss_rate = -nan, Pending_hits = 0, Reservation_fails = 0
	L1D_total_cache_accesses = 0
	L1D_total_cache_misses = 0
	L1D_total_cache_pending_hits = 0
	L1D_total_cache_reservation_fails = 0
	L1D_cache_data_port_util = 0.000
	L1D_cache_fill_port_util = 0.000
L1C_cache:
	L1C_total_cache_accesses = 2632
	L1C_total_cache_misses = 896
	L1C_total_cache_miss_rate = 0.3404
	L1C_total_cache_pending_hits = 0
	L1C_total_cache_reservation_fails = 3052
L1T_cache:
	L1T_total_cache_accesses = 0
	L1T_total_cache_misses = 0
	L1T_total_cache_pending_hits = 0
	L1T_total_cache_reservation_fails = 0

Total_core_cache_stats:
	Total_core_cache_stats_breakdown[GLOBAL_ACC_R][HIT] = 0
	Total_core_cache_stats_breakdown[GLOBAL_ACC_R][HIT_RESERVED] = 0
	Total_core_cache_stats_breakdown[GLOBAL_ACC_R][MISS] = 0
	Total_core_cache_stats_breakdown[GLOBAL_ACC_R][RESERVATION_FAIL] = 0
	Total_core_cache_stats_breakdown[GLOBAL_ACC_R][SECTOR_MISS] = 0
	Total_core_cache_stats_breakdown[LOCAL_ACC_R][HIT] = 0
	Total_core_cache_stats_breakdown[LOCAL_ACC_R][HIT_RESERVED] = 0
	Total_core_cache_stats_breakdown[LOCAL_ACC_R][MISS] = 0
	Total_core_cache_stats_breakdown[LOCAL_ACC_R][RESERVATION_FAIL] = 0
	Total_core_cache_stats_breakdown[LOCAL_ACC_R][SECTOR_MISS] = 0
	Total_core_cache_stats_breakdown[CONST_ACC_R][HIT] = 1736
	Total_core_cache_stats_breakdown[CONST_ACC_R][HIT_RESERVED] = 0
	Total_core_cache_stats_breakdown[CONST_ACC_R][MISS] = 896
	Total_core_cache_stats_breakdown[CONST_ACC_R][RESERVATION_FAIL] = 3052
	Total_core_cache_stats_breakdown[CONST_ACC_R][SECTOR_MISS] = 0
	Total_core_cache_stats_breakdown[TEXTURE_ACC_R][HIT] = 0
	Total_core_cache_stats_breakdown[TEXTURE_ACC_R][HIT_RESERVED] = 0
	Total_core_cache_stats_breakdown[TEXTURE_ACC_R][MISS] = 0
	Total_core_cache_stats_breakdown[TEXTURE_ACC_R][RESERVATION_FAIL] = 0
	Total_core_cache_stats_breakdown[TEXTURE_ACC_R][SECTOR_MISS] = 0
	Total_core_cache_stats_breakdown[GLOBAL_ACC_W][HIT] = 0
	Total_core_cache_stats_breakdown[GLOBAL_ACC_W][HIT_RESERVED] = 0
	Total_core_cache_stats_breakdown[GLOBAL_ACC_W][MISS] = 0
	Total_core_cache_stats_breakdown[GLOBAL_ACC_W][RESERVATION_FAIL] = 0
	Total_core_cache_stats_breakdown[GLOBAL_ACC_W][SECTOR_MISS] = 0
	Total_core_cache_stats_breakdown[LOCAL_ACC_W][HIT] = 0
	Total_core_cache_stats_breakdown[LOCAL_ACC_W][HIT_RESERVED] = 0
	Total_core_cache_stats_breakdown[LOCAL_ACC_W][MISS] = 0
	Total_core_cache_stats_breakdown[LOCAL_ACC_W][RESERVATION_FAIL] = 0
	Total_core_cache_stats_breakdown[LOCAL_ACC_W][SECTOR_MISS] = 0
	Total_core_cache_stats_breakdown[L1_WRBK_ACC][HIT] = 0
	Total_core_cache_stats_breakdown[L1_WRBK_ACC][HIT_RESERVED] = 0
	Total_core_cache_stats_breakdown[L1_WRBK_ACC][MISS] = 0
	Total_core_cache_stats_breakdown[L1_WRBK_ACC][RESERVATION_FAIL] = 0
	Total_core_cache_stats_breakdown[L1_WRBK_ACC][SECTOR_MISS] = 0
	Total_core_cache_stats_breakdown[L2_WRBK_ACC][HIT] = 0
	Total_core_cache_stats_breakdown[L2_WRBK_ACC][HIT_RESERVED] = 0
	Total_core_cache_stats_breakdown[L2_WRBK_ACC][MISS] = 0
	Total_core_cache_stats_breakdown[L2_WRBK_ACC][RESERVATION_FAIL] = 0
	Total_core_cache_stats_breakdown[L2_WRBK_ACC][SECTOR_MISS] = 0
	Total_core_cache_stats_breakdown[INST_ACC_R][HIT] = 222534
	Total_core_cache_stats_breakdown[INST_ACC_R][HIT_RESERVED] = 0
	Total_core_cache_stats_breakdown[INST_ACC_R][MISS] = 2503
	Total_core_cache_stats_breakdown[INST_ACC_R][RESERVATION_FAIL] = 0
	Total_core_cache_stats_breakdown[INST_ACC_R][SECTOR_MISS] = 0
	Total_core_cache_stats_breakdown[L1_WR_ALLOC_R][HIT] = 0
	Total_core_cache_stats_breakdown[L1_WR_ALLOC_R][HIT_RESERVED] = 0
	Total_core_cache_stats_breakdown[L1_WR_ALLOC_R][MISS] = 0
	Total_core_cache_stats_breakdown[L1_WR_ALLOC_R][RESERVATION_FAIL] = 0
	Total_core_cache_stats_breakdown[L1_WR_ALLOC_R][SECTOR_MISS] = 0
	Total_core_cache_stats_breakdown[L2_WR_ALLOC_R][HIT] = 0
	Total_core_cache_stats_breakdown[L2_WR_ALLOC_R][HIT_RESERVED] = 0
	Total_core_cache_stats_breakdown[L2_WR_ALLOC_R][MISS] = 0
	Total_core_cache_stats_breakdown[L2_WR_ALLOC_R][RESERVATION_FAIL] = 0
	Total_core_cache_stats_breakdown[L2_WR_ALLOC_R][SECTOR_MISS] = 0
	Total_core_cache_stats_breakdown[CONST_ACC_R][TOTAL_ACCESS] = 2632
	Total_core_cache_stats_breakdown[INST_ACC_R][TOTAL_ACCESS] = 225037

Total_core_cache_fail_stats:
	Total_core_cache_fail_stats_breakdown[CONST_ACC_R][MSHR_MERGE_ENRTY_FAIL] = 3052
ctas_completed 47, Shader 0 warp_id issue ditsribution:
warp_id:
0, 1, 2, 3, 4, 5, 6, 7, 8, 9, 10, 11, 12, 13, 14, 15, 16, 17, 18, 19, 20, 21, 22, 23, 24, 25, 26, 27, 28, 29, 30, 31, 
distro:
1379, 1379, 1380, 1380, 1386, 1380, 1378, 1380, 1381, 1380, 1386, 1373, 1382, 1379, 1387, 1382, 1381, 1384, 1379, 1382, 1384, 1385, 1383, 1382, 1376, 1381, 1374, 1376, 1378, 1380, 1373, 1373, 
gpgpu_n_tot_thrd_icount = 13941152
gpgpu_n_tot_w_icount = 435661
gpgpu_n_stall_shd_mem = 32830
gpgpu_n_mem_read_local = 0
gpgpu_n_mem_write_local = 0
gpgpu_n_mem_read_global = 36366
gpgpu_n_mem_write_global = 1574
gpgpu_n_mem_texture = 0
gpgpu_n_mem_const = 14
gpgpu_n_load_insn  = 229320
gpgpu_n_store_insn = 10000
gpgpu_n_shmem_insn = 1306720
gpgpu_n_sstarr_insn = 0
gpgpu_n_tex_insn = 0
gpgpu_n_const_mem_insn = 0
gpgpu_n_param_mem_insn = 84224
gpgpu_n_shmem_bkconflict = 0
gpgpu_n_cache_bkconflict = 0
gpgpu_n_intrawarp_mshr_merge = 0
gpgpu_n_cmem_portconflict = 3052
gpgpu_stall_shd_mem[c_mem][resource_stall] = 3052
gpgpu_stall_shd_mem[s_mem][bk_conf] = 0
gpgpu_stall_shd_mem[gl_mem][resource_stall] = 0
gpgpu_stall_shd_mem[gl_mem][coal_stall] = 29778
gpgpu_stall_shd_mem[gl_mem][data_port_stall] = 0
gpu_reg_bank_conflict_stalls = 0
Warp Occupancy Distribution:
Stall:61657	W0_Idle:105373	W0_Scoreboard:327671	W1:0	W2:0	W3:0	W4:0	W5:0	W6:0	W7:0	W8:0	W9:0	W10:0	W11:0	W12:3219	W13:2484	W14:2484	W15:2484	W16:2484	W17:2484	W18:2484	W19:2484	W20:3035	W21:2484	W22:2484	W23:2484	W24:2484	W25:2484	W26:2484	W27:2484	W28:2484	W29:2484	W30:2484	W31:2484	W32:384695
single_issue_nums: WS0:68537	WS1:68429	WS2:68433	WS3:68330	
dual_issue_nums: WS0:20258	WS1:20312	WS2:20310	WS3:20086	
traffic_breakdown_coretomem[CONST_ACC_R] = 112 {8:14,}
traffic_breakdown_coretomem[GLOBAL_ACC_R] = 290928 {8:36366,}
traffic_breakdown_coretomem[GLOBAL_ACC_W] = 62960 {40:1574,}
traffic_breakdown_coretomem[INST_ACC_R] = 896 {8:112,}
traffic_breakdown_memtocore[CONST_ACC_R] = 1120 {40:28,}
traffic_breakdown_memtocore[GLOBAL_ACC_R] = 1454640 {40:36366,}
traffic_breakdown_memtocore[GLOBAL_ACC_W] = 12592 {8:1574,}
traffic_breakdown_memtocore[INST_ACC_R] = 17920 {40:448,}
maxmflatency = 356 
max_icnt2mem_latency = 60 
maxmrqlatency = 51 
max_icnt2sh_latency = 74 
averagemflatency = 247 
avg_icnt2mem_latency = 10 
avg_mrq_latency = 1 
avg_icnt2sh_latency = 15 
mrq_lat_table:20412 	2803 	1377 	1001 	664 	27 	0 	0 	0 	0 	0 	0 	0 	0 	0 	0 	0 	0 	0 	0 	0 	0 	0 	0 	0 	0 	0 	0 	0 	0 	0 	0 	
dq_lat_table:0 	0 	0 	0 	0 	0 	0 	0 	0 	0 	0 	0 	0 	0 	0 	0 	0 	0 	0 	0 	0 	0 	0 	0 	0 	0 	0 	0 	0 	0 	0 	0 	
mf_lat_table:0 	0 	0 	0 	0 	0 	0 	19541 	18427 	0 	0 	0 	0 	0 	0 	0 	0 	0 	0 	0 	0 	0 	0 	0 	0 	0 	0 	0 	0 	0 	0 	0 	
icnt2mem_lat_table:0 	0 	20507 	12913 	2833 	1813 	0 	0 	0 	0 	0 	0 	0 	0 	0 	0 	0 	0 	0 	0 	0 	0 	0 	0 	
icnt2sh_lat_table:0 	0 	9517 	14467 	10752 	3188 	44 	0 	0 	0 	0 	0 	0 	0 	0 	0 	0 	0 	0 	0 	0 	0 	0 	0 	
mf_lat_pw_table:0 	0 	0 	0 	0 	0 	0 	25 	4 	0 	0 	0 	0 	0 	0 	0 	0 	0 	0 	0 	0 	0 	0 	0 	0 	0 	0 	0 	0 	0 	0 	0 	
maximum concurrent accesses to same row:
dram[0]:        64        64        64        64        64        64        64        64        64        64        64        64        64        64        64        64 
dram[1]:        64        64        64        64        64        64        64        64        64        64        64        64        64        64        64        64 
dram[2]:        64        64        64        64        64        64        64        64        64        64        64        64        64        64        64        64 
dram[3]:        64        64        64        64        64        64        64        64        64        64        64        64        64        64        64        64 
dram[4]:        64        64        64        64        64        64        64        64        64        64        64        64        64        64        64        64 
dram[5]:        64        64        64        64        64        64        64        64        64        64        64        64        64        64        64        64 
dram[6]:        64        64        64        64        64        64        64        64        64        64        64        64        64        64        64        64 
dram[7]:        64        64        64        64        64        64        64        64        64        64        64        64        64        64        64        64 
dram[8]:        64        64        64        64        64        64        64        64        64        64        64        64        64        64        64        64 
dram[9]:        64        64        64        64        64        64        64        64        64        64        64        64        64        64        64        64 
dram[10]:        64        64        64        64        64        64        64        64        64        64        64        64        64        64        64        64 
dram[11]:        64        64        64        64        64        64        64        64        64        64        64        64        64        64        64        64 
maximum service time to same row:
dram[0]:      6897      6081      8337      8337      8921      8918      9513      9527     10235     10233     11107     11103     11891     11868     12550     12545 
dram[1]:      6051      5781      8328      8326      8917      8913      9532      9510     10230     10253     11108     11272     11863     11862     12431     12437 
dram[2]:      5779      6058      8353      8323      8912      8908      9505      9503     10250     10243     11277     11292     11857     11856     12435     12440 
dram[3]:      6070      7112      8343      8337      8936      8903      9516      9478     10241     10409     11270     11267     11849     11844     12450     12447 
dram[4]:      7437      7382      8335      8498      8912      8909      9476      9486     10071     10077     10673     10671     11843     11838     12430     12428 
dram[5]:      7381      7408      8494      8483      9054      9045      9812      9827     10075     10399     10668     11252     11833     11827     12418     12425 
dram[6]:      7408      7423      8418      8416      9044      8988      9854      9853     10430     10447     11403     11399     11969     11966     12421     12548 
dram[7]:      7387      7376      8402      8399      8985      8995      9870      9862     10452     10464     11385     11326     11978     11912     12544     12543 
dram[8]:      7375      7444      8406      8410      9009      9005      9842      9841     10471     10469     11320     11336     11909     11912     12506     12503 
dram[9]:      7440      7408      8422      8420      8994      8990      9847      9834     10460     10440     11335     11330     11931     11919     12508     12501 
dram[10]:      7403      7399      8394      8391      9002      9137      9848      9827     10426     10425     11326     11341     11917     11924     12495     12491 
dram[11]:      7416      7413      8333      8331      8907      8904      9679      9515     10355     10354     11356     11320     11922     11973     12513     12523 
average row accesses per activate:
dram[0]: 47.000000 46.000000 72.000000 72.000000 128.000000 128.000000 128.000000 128.000000 128.000000 128.000000 128.000000 128.000000 128.000000 128.000000 128.000000 128.000000 
dram[1]: 46.000000 61.333332 72.000000 72.000000 128.000000 128.000000 128.000000 128.000000 128.000000 128.000000 128.000000 128.000000 128.000000 128.000000 128.000000 128.000000 
dram[2]: 61.333332 61.333332 74.000000 74.000000 128.000000 128.000000 128.000000 128.000000 128.000000 128.000000 128.000000 128.000000 128.000000 128.000000 128.000000 128.000000 
dram[3]: 61.333332 46.000000 74.000000 74.000000 128.000000 128.000000 128.000000 128.000000 128.000000 128.000000 128.000000 128.000000 128.000000 128.000000 128.000000 128.000000 
dram[4]: 90.000000 90.000000 74.000000 74.000000 128.000000 128.000000 128.000000 128.000000 128.000000 128.000000 128.000000 128.000000 128.000000 128.000000 128.000000 128.000000 
dram[5]: 90.000000 90.000000 74.000000 74.000000 128.000000 128.000000 128.000000 128.000000 128.000000 128.000000 128.000000 128.000000 128.000000 128.000000 128.000000 128.000000 
dram[6]: 90.000000 90.000000 74.000000 74.000000 128.000000 128.000000 128.000000 128.000000 128.000000 128.000000 128.000000 128.000000 128.000000 128.000000 128.000000 128.000000 
dram[7]: 90.000000 90.000000 72.000000 72.000000 128.000000 128.000000 128.000000 128.000000 128.000000 128.000000 128.000000 128.000000 128.000000 128.000000 128.000000 128.000000 
dram[8]: 90.000000 90.000000 72.000000 72.000000 128.000000 128.000000 128.000000 128.000000 128.000000 128.000000 128.000000 128.000000 128.000000 128.000000 128.000000 128.000000 
dram[9]: 90.000000 90.000000 72.000000 72.000000 128.000000 128.000000 128.000000 128.000000 128.000000 128.000000 128.000000 128.000000 128.000000 128.000000 128.000000 128.000000 
dram[10]: 90.000000 90.000000 72.000000 72.000000 128.000000 128.000000 128.000000 128.000000 128.000000 128.000000 128.000000 128.000000 128.000000 128.000000 128.000000 128.000000 
dram[11]: 90.000000 90.000000 72.000000 72.000000 128.000000 128.000000 128.000000 128.000000 128.000000 128.000000 128.000000 128.000000 128.000000 128.000000 128.000000 128.000000 
average row locality = 26284/252 = 104.301590
number of total memory accesses made:
dram[0]:         0         0         0         0         0         0         0         0         0         0         0         0         0         0         0         0 
dram[1]:         0         0         0         0         0         0         0         0         0         0         0         0         0         0         0         0 
dram[2]:         0         0         0         0         0         0         0         0         0         0         0         0         0         0         0         0 
dram[3]:         0         0         0         0         0         0         0         0         0         0         0         0         0         0         0         0 
dram[4]:         0         0         0         0         0         0         0         0         0         0         0         0         0         0         0         0 
dram[5]:         0         0         0         0         0         0         0         0         0         0         0         0         0         0         0         0 
dram[6]:         0         0         0         0         0         0         0         0         0         0         0         0         0         0         0         0 
dram[7]:         0         0         0         0         0         0         0         0         0         0         0         0         0         0         0         0 
dram[8]:         0         0         0         0         0         0         0         0         0         0         0         0         0         0         0         0 
dram[9]:         0         0         0         0         0         0         0         0         0         0         0         0         0         0         0         0 
dram[10]:         0         0         0         0         0         0         0         0         0         0         0         0         0         0         0         0 
dram[11]:         0         0         0         0         0         0         0         0         0         0         0         0         0         0         0         0 
total accesses: 0
min_bank_accesses = 0!
min_chip_accesses = 0!
number of total read accesses:
dram[0]:       188       184       144       144       128       128       128       128       128       128       128       128       128       128       128       128 
dram[1]:       184       184       144       144       128       128       128       128       128       128       128       128       128       128       128       128 
dram[2]:       184       184       148       148       128       128       128       128       128       128       128       128       128       128       128       128 
dram[3]:       184       184       148       148       128       128       128       128       128       128       128       128       128       128       128       128 
dram[4]:       180       180       148       148       128       128       128       128       128       128       128       128       128       128       128       128 
dram[5]:       180       180       148       148       128       128       128       128       128       128       128       128       128       128       128       128 
dram[6]:       180       180       148       148       128       128       128       128       128       128       128       128       128       128       128       128 
dram[7]:       180       180       144       144       128       128       128       128       128       128       128       128       128       128       128       128 
dram[8]:       180       180       144       144       128       128       128       128       128       128       128       128       128       128       128       128 
dram[9]:       180       180       144       144       128       128       128       128       128       128       128       128       128       128       128       128 
dram[10]:       180       180       144       144       128       128       128       128       128       128       128       128       128       128       128       128 
dram[11]:       180       180       144       144       128       128       128       128       128       128       128       128       128       128       128       128 
total dram reads = 26284
bank skew: 188/128 = 1.47
chip skew: 2200/2184 = 1.01
number of total write accesses:
dram[0]:         0         0         0         0         0         0         0         0         0         0         0         0         0         0         0         0 
dram[1]:         0         0         0         0         0         0         0         0         0         0         0         0         0         0         0         0 
dram[2]:         0         0         0         0         0         0         0         0         0         0         0         0         0         0         0         0 
dram[3]:         0         0         0         0         0         0         0         0         0         0         0         0         0         0         0         0 
dram[4]:         0         0         0         0         0         0         0         0         0         0         0         0         0         0         0         0 
dram[5]:         0         0         0         0         0         0         0         0         0         0         0         0         0         0         0         0 
dram[6]:         0         0         0         0         0         0         0         0         0         0         0         0         0         0         0         0 
dram[7]:         0         0         0         0         0         0         0         0         0         0         0         0         0         0         0         0 
dram[8]:         0         0         0         0         0         0         0         0         0         0         0         0         0         0         0         0 
dram[9]:         0         0         0         0         0         0         0         0         0         0         0         0         0         0         0         0 
dram[10]:         0         0         0         0         0         0         0         0         0         0         0         0         0         0         0         0 
dram[11]:         0         0         0         0         0         0         0         0         0         0         0         0         0         0         0         0 
total dram writes = 0
min_bank_accesses = 0!
min_chip_accesses = 0!
average mf latency per bank:
dram[0]:        393       353       397       394       382       377       358       346       345       338       337       342       344       339       340       339
dram[1]:        381       361       396       392       378       371       347       367       339       342       337       338       340       339       345       340
dram[2]:        349       357       395       390       368       360       351       341       339       337       342       343       337       342       339       338
dram[3]:        366       364       391       388       362       373       354       358       338       346       338       337       340       339       338       337
dram[4]:        369       384       388       384       368       358       349       346       352       340       344       348       345       337       335       338
dram[5]:        375       361       392       402       384       364       358       362       328       336       341       334       333       335       348       331
dram[6]:        376       381       387       391       353       377       349       354       339       342       338       334       337       337       329       335
dram[7]:        366       369       398       393       380       369       355       350       345       336       337       342       339       339       335       334
dram[8]:        381       361       397       399       374       370       349       355       334       332       333       333       338       334       349       346
dram[9]:        367       377       395       398       359       369       357       348       333       346       340       341       335       335       335       334
dram[10]:        368       367       392       387       374       362       354       357       344       341       338       346       347       343       341       341
dram[11]:        374       375       393       398       354       366       337       353       341       333       344       335       339       340       347       346
maximum mf latency per bank:
dram[0]:        333       312       305       319       329       326       318       297       303       286       288       302       302       297       307       299
dram[1]:        356       314       346       326       339       333       316       344       290       293       292       291       302       290       301       297
dram[2]:        302       301       332       322       338       323       304       302       302       289       286       282       285       293       283       291
dram[3]:        312       347       321       304       320       317       295       316       291       292       302       287       287       294       285       284
dram[4]:        328       330       318       304       320       323       294       290       288       282       287       290       287       286       284       297
dram[5]:        326       311       322       338       347       320       329       292       282       287       290       285       285       275       281       278
dram[6]:        328       311       313       324       315       326       314       314       286       283       282       286       282       286       274       292
dram[7]:        323       313       346       316       354       327       290       291       278       292       281       281       287       282       299       296
dram[8]:        331       323       330       322       338       352       325       296       291       291       279       284       278       281       292       304
dram[9]:        318       336       309       329       318       334       304       308       278       280       282       283       289       297       293       287
dram[10]:        310       318       340       314       337       305       330       302       282       286       284       288       302       288       308       317
dram[11]:        309       319       306       342       305       342       299       294       281       291       285       287       292       288       304       295
Memory Partition 0: 
Cache L2_bank_000:
MSHR contents

Cache L2_bank_001:
MSHR contents

In Dram Latency Queue (total = 0): 
DRAM[0]: 16 bks, busW=4 BL=8 CL=16, tRRD=8 tCCD=2, tRCD=16 tRAS=37 tRP=16 tRC=52
n_cmd=28517 n_nop=26261 n_act=38 n_pre=22 n_ref_event=94104675191456 n_req=2196 n_rd=2196 n_rd_L2_A=0 n_write=0 n_wr_bk=0 bw_util=0.154
n_activity=11277 dram_eff=0.3895
bk0: 188a 28035i bk1: 184a 28031i bk2: 144a 28158i bk3: 144a 28155i bk4: 128a 28159i bk5: 128a 28161i bk6: 128a 28192i bk7: 128a 28214i bk8: 128a 28231i bk9: 128a 28245i bk10: 128a 28262i bk11: 128a 28214i bk12: 128a 28260i bk13: 128a 28241i bk14: 128a 28219i bk15: 128a 28234i 

------------------------------------------------------------------------

Row_Buffer_Locality = 0.989071
Row_Buffer_Locality_read = 0.989071
Row_Buffer_Locality_write = -nan
Bank_Level_Parallism = 1.271155
Bank_Level_Parallism_Col = 0.669089
Bank_Level_Parallism_Ready = 1.102821
write_to_read_ratio_blp_rw_average = 0.000000
GrpLevelPara = 0.000000 

BW Util details:
bwutil = 0.154013 
total_CMD = 28517 
util_bw = 4392 
Wasted_Col = 2071 
Wasted_Row = 213 
Idle = 21841 

BW Util Bottlenecks: 
RCDc_limit = 473 
RCDWRc_limit = 0 
WTRc_limit = 0 
RTWc_limit = 0 
CCDLc_limit = 1728 
rwq = 0 
CCDLc_limit_alone = 1728 
WTRc_limit_alone = 0 
RTWc_limit_alone = 0 

Commands details: 
total_CMD = 28517 
n_nop = 26261 
Read = 2196 
Write = 0 
L2_Alloc = 0 
L2_WB = 0 
n_act = 38 
n_pre = 22 
n_ref = 94104675191456 
n_req = 2196 
total_req = 2196 

Dual Bus Interface Util: 
issued_total_row = 60 
issued_total_col = 2196 
Row_Bus_Util =  0.002104 
CoL_Bus_Util = 0.077007 
Either_Row_CoL_Bus_Util = 0.079111 
Issued_on_Two_Bus_Simul_Util = 0.000000 
issued_two_Eff = 0.000000 
queue_avg = 0.236455 


dram_util_bins: 0 0 0 0 0 0 0 0 0 0
dram_eff_bins: 0 0 0 0 0 0 0 0 0 0
mrqq: max=18 avg=0.236455
Memory Partition 1: 
Cache L2_bank_002:
MSHR contents

Cache L2_bank_003:
MSHR contents

In Dram Latency Queue (total = 0): 
DRAM[1]: 16 bks, busW=4 BL=8 CL=16, tRRD=8 tCCD=2, tRCD=16 tRAS=37 tRP=16 tRC=52
n_cmd=28517 n_nop=26265 n_act=38 n_pre=22 n_ref_event=0 n_req=2192 n_rd=2192 n_rd_L2_A=0 n_write=0 n_wr_bk=0 bw_util=0.1537
n_activity=11306 dram_eff=0.3878
bk0: 184a 28025i bk1: 184a 28049i bk2: 144a 28184i bk3: 144a 28192i bk4: 128a 28178i bk5: 128a 28161i bk6: 128a 28176i bk7: 128a 28158i bk8: 128a 28259i bk9: 128a 28239i bk10: 128a 28234i bk11: 128a 28236i bk12: 128a 28228i bk13: 128a 28256i bk14: 128a 28243i bk15: 128a 28245i 

------------------------------------------------------------------------

Row_Buffer_Locality = 0.989507
Row_Buffer_Locality_read = 0.989507
Row_Buffer_Locality_write = -nan
Bank_Level_Parallism = 1.275277
Bank_Level_Parallism_Col = 1.254020
Bank_Level_Parallism_Ready = 1.102190
write_to_read_ratio_blp_rw_average = 0.000000
GrpLevelPara = 1.254020 

BW Util details:
bwutil = 0.153733 
total_CMD = 28517 
util_bw = 4384 
Wasted_Col = 2015 
Wasted_Row = 213 
Idle = 21905 

BW Util Bottlenecks: 
RCDc_limit = 502 
RCDWRc_limit = 0 
WTRc_limit = 0 
RTWc_limit = 0 
CCDLc_limit = 1636 
rwq = 0 
CCDLc_limit_alone = 1636 
WTRc_limit_alone = 0 
RTWc_limit_alone = 0 

Commands details: 
total_CMD = 28517 
n_nop = 26265 
Read = 2192 
Write = 0 
L2_Alloc = 0 
L2_WB = 0 
n_act = 38 
n_pre = 22 
n_ref = 0 
n_req = 2192 
total_req = 2192 

Dual Bus Interface Util: 
issued_total_row = 60 
issued_total_col = 2192 
Row_Bus_Util =  0.002104 
CoL_Bus_Util = 0.076866 
Either_Row_CoL_Bus_Util = 0.078970 
Issued_on_Two_Bus_Simul_Util = 0.000000 
issued_two_Eff = 0.000000 
queue_avg = 0.246835 


dram_util_bins: 0 0 0 0 0 0 0 0 0 0
dram_eff_bins: 0 0 0 0 0 0 0 0 0 0
mrqq: max=17 avg=0.246835
Memory Partition 2: 
Cache L2_bank_004:
MSHR contents

Cache L2_bank_005:
MSHR contents

In Dram Latency Queue (total = 0): 
DRAM[2]: 16 bks, busW=4 BL=8 CL=16, tRRD=8 tCCD=2, tRCD=16 tRAS=37 tRP=16 tRC=52
n_cmd=28517 n_nop=26257 n_act=38 n_pre=22 n_ref_event=0 n_req=2200 n_rd=2200 n_rd_L2_A=0 n_write=0 n_wr_bk=0 bw_util=0.1543
n_activity=11264 dram_eff=0.3906
bk0: 184a 28049i bk1: 184a 28068i bk2: 148a 28164i bk3: 148a 28172i bk4: 128a 28179i bk5: 128a 28150i bk6: 128a 28222i bk7: 128a 28174i bk8: 128a 28230i bk9: 128a 28239i bk10: 128a 28247i bk11: 128a 28238i bk12: 128a 28241i bk13: 128a 28226i bk14: 128a 28259i bk15: 128a 28232i 

------------------------------------------------------------------------

Row_Buffer_Locality = 0.990000
Row_Buffer_Locality_read = 0.990000
Row_Buffer_Locality_write = -nan
Bank_Level_Parallism = 1.266287
Bank_Level_Parallism_Col = 1.245687
Bank_Level_Parallism_Ready = 1.093509
write_to_read_ratio_blp_rw_average = 0.000000
GrpLevelPara = 1.242811 

BW Util details:
bwutil = 0.154294 
total_CMD = 28517 
util_bw = 4400 
Wasted_Col = 1998 
Wasted_Row = 208 
Idle = 21911 

BW Util Bottlenecks: 
RCDc_limit = 466 
RCDWRc_limit = 0 
WTRc_limit = 0 
RTWc_limit = 0 
CCDLc_limit = 1664 
rwq = 0 
CCDLc_limit_alone = 1664 
WTRc_limit_alone = 0 
RTWc_limit_alone = 0 

Commands details: 
total_CMD = 28517 
n_nop = 26257 
Read = 2200 
Write = 0 
L2_Alloc = 0 
L2_WB = 0 
n_act = 38 
n_pre = 22 
n_ref = 0 
n_req = 2200 
total_req = 2200 

Dual Bus Interface Util: 
issued_total_row = 60 
issued_total_col = 2200 
Row_Bus_Util =  0.002104 
CoL_Bus_Util = 0.077147 
Either_Row_CoL_Bus_Util = 0.079251 
Issued_on_Two_Bus_Simul_Util = 0.000000 
issued_two_Eff = 0.000000 
queue_avg = 0.194340 


dram_util_bins: 0 0 0 0 0 0 0 0 0 0
dram_eff_bins: 0 0 0 0 0 0 0 0 0 0
mrqq: max=8 avg=0.19434
Memory Partition 3: 
Cache L2_bank_006:
MSHR contents

Cache L2_bank_007:
MSHR contents

In Dram Latency Queue (total = 0): 
DRAM[3]: 16 bks, busW=4 BL=8 CL=16, tRRD=8 tCCD=2, tRCD=16 tRAS=37 tRP=16 tRC=52
n_cmd=28517 n_nop=26255 n_act=39 n_pre=23 n_ref_event=0 n_req=2200 n_rd=2200 n_rd_L2_A=0 n_write=0 n_wr_bk=0 bw_util=0.1543
n_activity=11378 dram_eff=0.3867
bk0: 184a 28054i bk1: 184a 27992i bk2: 148a 28171i bk3: 148a 28164i bk4: 128a 28228i bk5: 128a 28206i bk6: 128a 28217i bk7: 128a 28189i bk8: 128a 28226i bk9: 128a 28213i bk10: 128a 28268i bk11: 128a 28226i bk12: 128a 28239i bk13: 128a 28265i bk14: 128a 28224i bk15: 128a 28256i 

------------------------------------------------------------------------

Row_Buffer_Locality = 0.989545
Row_Buffer_Locality_read = 0.989545
Row_Buffer_Locality_write = -nan
Bank_Level_Parallism = 1.254167
Bank_Level_Parallism_Col = 1.004570
Bank_Level_Parallism_Ready = 1.073182
write_to_read_ratio_blp_rw_average = 0.000000
GrpLevelPara = 0.000000 

BW Util details:
bwutil = 0.154294 
total_CMD = 28517 
util_bw = 4400 
Wasted_Col = 2028 
Wasted_Row = 234 
Idle = 21855 

BW Util Bottlenecks: 
RCDc_limit = 480 
RCDWRc_limit = 0 
WTRc_limit = 0 
RTWc_limit = 0 
CCDLc_limit = 1684 
rwq = 0 
CCDLc_limit_alone = 1684 
WTRc_limit_alone = 0 
RTWc_limit_alone = 0 

Commands details: 
total_CMD = 28517 
n_nop = 26255 
Read = 2200 
Write = 0 
L2_Alloc = 0 
L2_WB = 0 
n_act = 39 
n_pre = 23 
n_ref = 0 
n_req = 2200 
total_req = 2200 

Dual Bus Interface Util: 
issued_total_row = 62 
issued_total_col = 2200 
Row_Bus_Util =  0.002174 
CoL_Bus_Util = 0.077147 
Either_Row_CoL_Bus_Util = 0.079321 
Issued_on_Two_Bus_Simul_Util = 0.000000 
issued_two_Eff = 0.000000 
queue_avg = 0.217940 


dram_util_bins: 0 0 0 0 0 0 0 0 0 0
dram_eff_bins: 0 0 0 0 0 0 0 0 0 0
mrqq: max=11 avg=0.21794
Memory Partition 4: 
Cache L2_bank_008:
MSHR contents

Cache L2_bank_009:
MSHR contents

In Dram Latency Queue (total = 0): 
DRAM[4]: 16 bks, busW=4 BL=8 CL=16, tRRD=8 tCCD=2, tRCD=16 tRAS=37 tRP=16 tRC=52
n_cmd=28517 n_nop=26269 n_act=36 n_pre=20 n_ref_event=0 n_req=2192 n_rd=2192 n_rd_L2_A=0 n_write=0 n_wr_bk=0 bw_util=0.1537
n_activity=11314 dram_eff=0.3875
bk0: 180a 28140i bk1: 180a 28087i bk2: 148a 28163i bk3: 148a 28160i bk4: 128a 28194i bk5: 128a 28147i bk6: 128a 28219i bk7: 128a 28202i bk8: 128a 28223i bk9: 128a 28246i bk10: 128a 28258i bk11: 128a 28248i bk12: 128a 28265i bk13: 128a 28256i bk14: 128a 28253i bk15: 128a 28239i 

------------------------------------------------------------------------

Row_Buffer_Locality = 0.990876
Row_Buffer_Locality_read = 0.990876
Row_Buffer_Locality_write = -nan
Bank_Level_Parallism = 1.237963
Bank_Level_Parallism_Col = 1.212329
Bank_Level_Parallism_Ready = 1.078467
write_to_read_ratio_blp_rw_average = 0.000000
GrpLevelPara = 1.206020 

BW Util details:
bwutil = 0.153733 
total_CMD = 28517 
util_bw = 4384 
Wasted_Col = 2070 
Wasted_Row = 172 
Idle = 21891 

BW Util Bottlenecks: 
RCDc_limit = 413 
RCDWRc_limit = 0 
WTRc_limit = 0 
RTWc_limit = 0 
CCDLc_limit = 1789 
rwq = 0 
CCDLc_limit_alone = 1789 
WTRc_limit_alone = 0 
RTWc_limit_alone = 0 

Commands details: 
total_CMD = 28517 
n_nop = 26269 
Read = 2192 
Write = 0 
L2_Alloc = 0 
L2_WB = 0 
n_act = 36 
n_pre = 20 
n_ref = 0 
n_req = 2192 
total_req = 2192 

Dual Bus Interface Util: 
issued_total_row = 56 
issued_total_col = 2192 
Row_Bus_Util =  0.001964 
CoL_Bus_Util = 0.076866 
Either_Row_CoL_Bus_Util = 0.078830 
Issued_on_Two_Bus_Simul_Util = 0.000000 
issued_two_Eff = 0.000000 
queue_avg = 0.171547 


dram_util_bins: 0 0 0 0 0 0 0 0 0 0
dram_eff_bins: 0 0 0 0 0 0 0 0 0 0
mrqq: max=16 avg=0.171547
Memory Partition 5: 
Cache L2_bank_010:
MSHR contents

Cache L2_bank_011:
MSHR contents

In Dram Latency Queue (total = 0): 
DRAM[5]: 16 bks, busW=4 BL=8 CL=16, tRRD=8 tCCD=2, tRCD=16 tRAS=37 tRP=16 tRC=52
n_cmd=28517 n_nop=26269 n_act=36 n_pre=20 n_ref_event=0 n_req=2192 n_rd=2192 n_rd_L2_A=0 n_write=0 n_wr_bk=0 bw_util=0.1537
n_activity=11137 dram_eff=0.3936
bk0: 180a 28114i bk1: 180a 28089i bk2: 148a 28190i bk3: 148a 28148i bk4: 128a 28197i bk5: 128a 28196i bk6: 128a 28227i bk7: 128a 28209i bk8: 128a 28249i bk9: 128a 28236i bk10: 128a 28234i bk11: 128a 28264i bk12: 128a 28257i bk13: 128a 28246i bk14: 128a 28255i bk15: 128a 28265i 

------------------------------------------------------------------------

Row_Buffer_Locality = 0.990876
Row_Buffer_Locality_read = 0.990876
Row_Buffer_Locality_write = -nan
Bank_Level_Parallism = 1.244001
Bank_Level_Parallism_Col = 0.983390
Bank_Level_Parallism_Ready = 1.062443
write_to_read_ratio_blp_rw_average = 0.000000
GrpLevelPara = 0.000000 

BW Util details:
bwutil = 0.153733 
total_CMD = 28517 
util_bw = 4384 
Wasted_Col = 1959 
Wasted_Row = 151 
Idle = 22023 

BW Util Bottlenecks: 
RCDc_limit = 384 
RCDWRc_limit = 0 
WTRc_limit = 0 
RTWc_limit = 0 
CCDLc_limit = 1696 
rwq = 0 
CCDLc_limit_alone = 1696 
WTRc_limit_alone = 0 
RTWc_limit_alone = 0 

Commands details: 
total_CMD = 28517 
n_nop = 26269 
Read = 2192 
Write = 0 
L2_Alloc = 0 
L2_WB = 0 
n_act = 36 
n_pre = 20 
n_ref = 0 
n_req = 2192 
total_req = 2192 

Dual Bus Interface Util: 
issued_total_row = 56 
issued_total_col = 2192 
Row_Bus_Util =  0.001964 
CoL_Bus_Util = 0.076866 
Either_Row_CoL_Bus_Util = 0.078830 
Issued_on_Two_Bus_Simul_Util = 0.000000 
issued_two_Eff = 0.000000 
queue_avg = 0.172003 


dram_util_bins: 0 0 0 0 0 0 0 0 0 0
dram_eff_bins: 0 0 0 0 0 0 0 0 0 0
mrqq: max=13 avg=0.172003
Memory Partition 6: 
Cache L2_bank_012:
MSHR contents

Cache L2_bank_013:
MSHR contents

In Dram Latency Queue (total = 0): 
DRAM[6]: 16 bks, busW=4 BL=8 CL=16, tRRD=8 tCCD=2, tRCD=16 tRAS=37 tRP=16 tRC=52
n_cmd=28517 n_nop=26269 n_act=36 n_pre=20 n_ref_event=315552 n_req=2192 n_rd=2192 n_rd_L2_A=0 n_write=0 n_wr_bk=0 bw_util=0.1537
n_activity=11129 dram_eff=0.3939
bk0: 180a 28090i bk1: 180a 28068i bk2: 148a 28173i bk3: 148a 28191i bk4: 128a 28222i bk5: 128a 28208i bk6: 128a 28222i bk7: 128a 28183i bk8: 128a 28266i bk9: 128a 28246i bk10: 128a 28253i bk11: 128a 28245i bk12: 128a 28259i bk13: 128a 28270i bk14: 128a 28263i bk15: 128a 28246i 

------------------------------------------------------------------------

Row_Buffer_Locality = 0.990876
Row_Buffer_Locality_read = 0.990876
Row_Buffer_Locality_write = -nan
Bank_Level_Parallism = 1.221835
Bank_Level_Parallism_Col = 1.191478
Bank_Level_Parallism_Ready = 1.053808
write_to_read_ratio_blp_rw_average = 0.000000
GrpLevelPara = 1.191478 

BW Util details:
bwutil = 0.153733 
total_CMD = 28517 
util_bw = 4384 
Wasted_Col = 2075 
Wasted_Row = 149 
Idle = 21909 

BW Util Bottlenecks: 
RCDc_limit = 469 
RCDWRc_limit = 0 
WTRc_limit = 0 
RTWc_limit = 0 
CCDLc_limit = 1713 
rwq = 0 
CCDLc_limit_alone = 1713 
WTRc_limit_alone = 0 
RTWc_limit_alone = 0 

Commands details: 
total_CMD = 28517 
n_nop = 26269 
Read = 2192 
Write = 0 
L2_Alloc = 0 
L2_WB = 0 
n_act = 36 
n_pre = 20 
n_ref = 315552 
n_req = 2192 
total_req = 2192 

Dual Bus Interface Util: 
issued_total_row = 56 
issued_total_col = 2192 
Row_Bus_Util =  0.001964 
CoL_Bus_Util = 0.076866 
Either_Row_CoL_Bus_Util = 0.078830 
Issued_on_Two_Bus_Simul_Util = 0.000000 
issued_two_Eff = 0.000000 
queue_avg = 0.162920 


dram_util_bins: 0 0 0 0 0 0 0 0 0 0
dram_eff_bins: 0 0 0 0 0 0 0 0 0 0
mrqq: max=16 avg=0.16292
Memory Partition 7: 
Cache L2_bank_014:
MSHR contents

Cache L2_bank_015:
MSHR contents

In Dram Latency Queue (total = 0): 
DRAM[7]: 16 bks, busW=4 BL=8 CL=16, tRRD=8 tCCD=2, tRCD=16 tRAS=37 tRP=16 tRC=52
n_cmd=28517 n_nop=26278 n_act=36 n_pre=20 n_ref_event=0 n_req=2184 n_rd=2184 n_rd_L2_A=0 n_write=0 n_wr_bk=0 bw_util=0.1532
n_activity=10741 dram_eff=0.4067
bk0: 180a 28072i bk1: 180a 28111i bk2: 144a 28179i bk3: 144a 28164i bk4: 128a 28195i bk5: 128a 28132i bk6: 128a 28211i bk7: 128a 28207i bk8: 128a 28219i bk9: 128a 28223i bk10: 128a 28248i bk11: 128a 28239i bk12: 128a 28261i bk13: 128a 28236i bk14: 128a 28241i bk15: 128a 28235i 

------------------------------------------------------------------------

Row_Buffer_Locality = 0.990842
Row_Buffer_Locality_read = 0.990842
Row_Buffer_Locality_write = -nan
Bank_Level_Parallism = 1.281245
Bank_Level_Parallism_Col = 1.254569
Bank_Level_Parallism_Ready = 1.087414
write_to_read_ratio_blp_rw_average = 0.000000
GrpLevelPara = 1.254569 

BW Util details:
bwutil = 0.153172 
total_CMD = 28517 
util_bw = 4368 
Wasted_Col = 1943 
Wasted_Row = 157 
Idle = 22049 

BW Util Bottlenecks: 
RCDc_limit = 436 
RCDWRc_limit = 0 
WTRc_limit = 0 
RTWc_limit = 0 
CCDLc_limit = 1654 
rwq = 0 
CCDLc_limit_alone = 1654 
WTRc_limit_alone = 0 
RTWc_limit_alone = 0 

Commands details: 
total_CMD = 28517 
n_nop = 26278 
Read = 2184 
Write = 0 
L2_Alloc = 0 
L2_WB = 0 
n_act = 36 
n_pre = 20 
n_ref = 0 
n_req = 2184 
total_req = 2184 

Dual Bus Interface Util: 
issued_total_row = 56 
issued_total_col = 2184 
Row_Bus_Util =  0.001964 
CoL_Bus_Util = 0.076586 
Either_Row_CoL_Bus_Util = 0.078515 
Issued_on_Two_Bus_Simul_Util = 0.000035 
issued_two_Eff = 0.000447 
queue_avg = 0.209103 


dram_util_bins: 0 0 0 0 0 0 0 0 0 0
dram_eff_bins: 0 0 0 0 0 0 0 0 0 0
mrqq: max=13 avg=0.209103
Memory Partition 8: 
Cache L2_bank_016:
MSHR contents

Cache L2_bank_017:
MSHR contents

In Dram Latency Queue (total = 0): 
DRAM[8]: 16 bks, busW=4 BL=8 CL=16, tRRD=8 tCCD=2, tRCD=16 tRAS=37 tRP=16 tRC=52
n_cmd=28517 n_nop=26277 n_act=36 n_pre=20 n_ref_event=0 n_req=2184 n_rd=2184 n_rd_L2_A=0 n_write=0 n_wr_bk=0 bw_util=0.1532
n_activity=10477 dram_eff=0.4169
bk0: 180a 28107i bk1: 180a 28074i bk2: 144a 28147i bk3: 144a 28122i bk4: 128a 28193i bk5: 128a 28120i bk6: 128a 28211i bk7: 128a 28186i bk8: 128a 28213i bk9: 128a 28191i bk10: 128a 28243i bk11: 128a 28237i bk12: 128a 28245i bk13: 128a 28229i bk14: 128a 28245i bk15: 128a 28241i 

------------------------------------------------------------------------

Row_Buffer_Locality = 0.990842
Row_Buffer_Locality_read = 0.990842
Row_Buffer_Locality_write = -nan
Bank_Level_Parallism = 1.330761
Bank_Level_Parallism_Col = 1.300277
Bank_Level_Parallism_Ready = 1.113043
write_to_read_ratio_blp_rw_average = 0.000000
GrpLevelPara = 1.300277 

BW Util details:
bwutil = 0.153172 
total_CMD = 28517 
util_bw = 4368 
Wasted_Col = 1805 
Wasted_Row = 137 
Idle = 22207 

BW Util Bottlenecks: 
RCDc_limit = 394 
RCDWRc_limit = 0 
WTRc_limit = 0 
RTWc_limit = 0 
CCDLc_limit = 1529 
rwq = 0 
CCDLc_limit_alone = 1529 
WTRc_limit_alone = 0 
RTWc_limit_alone = 0 

Commands details: 
total_CMD = 28517 
n_nop = 26277 
Read = 2184 
Write = 0 
L2_Alloc = 0 
L2_WB = 0 
n_act = 36 
n_pre = 20 
n_ref = 0 
n_req = 2184 
total_req = 2184 

Dual Bus Interface Util: 
issued_total_row = 56 
issued_total_col = 2184 
Row_Bus_Util =  0.001964 
CoL_Bus_Util = 0.076586 
Either_Row_CoL_Bus_Util = 0.078550 
Issued_on_Two_Bus_Simul_Util = 0.000000 
issued_two_Eff = 0.000000 
queue_avg = 0.256373 


dram_util_bins: 0 0 0 0 0 0 0 0 0 0
dram_eff_bins: 0 0 0 0 0 0 0 0 0 0
mrqq: max=22 avg=0.256373
Memory Partition 9: 
Cache L2_bank_018:
MSHR contents

Cache L2_bank_019:
MSHR contents

In Dram Latency Queue (total = 0): 
DRAM[9]: 16 bks, busW=4 BL=8 CL=16, tRRD=8 tCCD=2, tRCD=16 tRAS=37 tRP=16 tRC=52
n_cmd=28517 n_nop=26277 n_act=36 n_pre=20 n_ref_event=0 n_req=2184 n_rd=2184 n_rd_L2_A=0 n_write=0 n_wr_bk=0 bw_util=0.1532
n_activity=10710 dram_eff=0.4078
bk0: 180a 28058i bk1: 180a 28089i bk2: 144a 28187i bk3: 144a 28140i bk4: 128a 28216i bk5: 128a 28207i bk6: 128a 28213i bk7: 128a 28191i bk8: 128a 28224i bk9: 128a 28249i bk10: 128a 28216i bk11: 128a 28235i bk12: 128a 28254i bk13: 128a 28257i bk14: 128a 28259i bk15: 128a 28234i 

------------------------------------------------------------------------

Row_Buffer_Locality = 0.990842
Row_Buffer_Locality_read = 0.990842
Row_Buffer_Locality_write = -nan
Bank_Level_Parallism = 1.263398
Bank_Level_Parallism_Col = 1.240299
Bank_Level_Parallism_Ready = 1.093407
write_to_read_ratio_blp_rw_average = 0.000000
GrpLevelPara = 1.239752 

BW Util details:
bwutil = 0.153172 
total_CMD = 28517 
util_bw = 4368 
Wasted_Col = 1961 
Wasted_Row = 172 
Idle = 22016 

BW Util Bottlenecks: 
RCDc_limit = 441 
RCDWRc_limit = 0 
WTRc_limit = 0 
RTWc_limit = 0 
CCDLc_limit = 1629 
rwq = 0 
CCDLc_limit_alone = 1629 
WTRc_limit_alone = 0 
RTWc_limit_alone = 0 

Commands details: 
total_CMD = 28517 
n_nop = 26277 
Read = 2184 
Write = 0 
L2_Alloc = 0 
L2_WB = 0 
n_act = 36 
n_pre = 20 
n_ref = 0 
n_req = 2184 
total_req = 2184 

Dual Bus Interface Util: 
issued_total_row = 56 
issued_total_col = 2184 
Row_Bus_Util =  0.001964 
CoL_Bus_Util = 0.076586 
Either_Row_CoL_Bus_Util = 0.078550 
Issued_on_Two_Bus_Simul_Util = 0.000000 
issued_two_Eff = 0.000000 
queue_avg = 0.188063 


dram_util_bins: 0 0 0 0 0 0 0 0 0 0
dram_eff_bins: 0 0 0 0 0 0 0 0 0 0
mrqq: max=11 avg=0.188063
Memory Partition 10: 
Cache L2_bank_020:
MSHR contents

Cache L2_bank_021:
MSHR contents

In Dram Latency Queue (total = 0): 
DRAM[10]: 16 bks, busW=4 BL=8 CL=16, tRRD=8 tCCD=2, tRCD=16 tRAS=37 tRP=16 tRC=52
n_cmd=28517 n_nop=26277 n_act=36 n_pre=20 n_ref_event=0 n_req=2184 n_rd=2184 n_rd_L2_A=0 n_write=0 n_wr_bk=0 bw_util=0.1532
n_activity=10465 dram_eff=0.4174
bk0: 180a 28066i bk1: 180a 28091i bk2: 144a 28167i bk3: 144a 28164i bk4: 128a 28221i bk5: 128a 28218i bk6: 128a 28222i bk7: 128a 28188i bk8: 128a 28218i bk9: 128a 28228i bk10: 128a 28224i bk11: 128a 28239i bk12: 128a 28254i bk13: 128a 28237i bk14: 128a 28221i bk15: 128a 28203i 

------------------------------------------------------------------------

Row_Buffer_Locality = 0.990842
Row_Buffer_Locality_read = 0.990842
Row_Buffer_Locality_write = -nan
Bank_Level_Parallism = 1.279267
Bank_Level_Parallism_Col = 1.248956
Bank_Level_Parallism_Ready = 1.074176
write_to_read_ratio_blp_rw_average = 0.000000
GrpLevelPara = 1.243690 

BW Util details:
bwutil = 0.153172 
total_CMD = 28517 
util_bw = 4368 
Wasted_Col = 1913 
Wasted_Row = 135 
Idle = 22101 

BW Util Bottlenecks: 
RCDc_limit = 442 
RCDWRc_limit = 0 
WTRc_limit = 0 
RTWc_limit = 0 
CCDLc_limit = 1610 
rwq = 0 
CCDLc_limit_alone = 1610 
WTRc_limit_alone = 0 
RTWc_limit_alone = 0 

Commands details: 
total_CMD = 28517 
n_nop = 26277 
Read = 2184 
Write = 0 
L2_Alloc = 0 
L2_WB = 0 
n_act = 36 
n_pre = 20 
n_ref = 0 
n_req = 2184 
total_req = 2184 

Dual Bus Interface Util: 
issued_total_row = 56 
issued_total_col = 2184 
Row_Bus_Util =  0.001964 
CoL_Bus_Util = 0.076586 
Either_Row_CoL_Bus_Util = 0.078550 
Issued_on_Two_Bus_Simul_Util = 0.000000 
issued_two_Eff = 0.000000 
queue_avg = 0.208262 


dram_util_bins: 0 0 0 0 0 0 0 0 0 0
dram_eff_bins: 0 0 0 0 0 0 0 0 0 0
mrqq: max=9 avg=0.208262
Memory Partition 11: 
Cache L2_bank_022:
MSHR contents

Cache L2_bank_023:
MSHR contents

In Dram Latency Queue (total = 0): 
DRAM[11]: 16 bks, busW=4 BL=8 CL=16, tRRD=8 tCCD=2, tRCD=16 tRAS=37 tRP=16 tRC=52
n_cmd=28517 n_nop=26278 n_act=36 n_pre=20 n_ref_event=0 n_req=2184 n_rd=2184 n_rd_L2_A=0 n_write=0 n_wr_bk=0 bw_util=0.1532
n_activity=10800 dram_eff=0.4044
bk0: 180a 28104i bk1: 180a 28079i bk2: 144a 28164i bk3: 144a 28185i bk4: 128a 28213i bk5: 128a 28169i bk6: 128a 28221i bk7: 128a 28196i bk8: 128a 28209i bk9: 128a 28226i bk10: 128a 28259i bk11: 128a 28232i bk12: 128a 28229i bk13: 128a 28215i bk14: 128a 28228i bk15: 128a 28229i 

------------------------------------------------------------------------

Row_Buffer_Locality = 0.990842
Row_Buffer_Locality_read = 0.990842
Row_Buffer_Locality_write = -nan
Bank_Level_Parallism = 1.281961
Bank_Level_Parallism_Col = 1.257798
Bank_Level_Parallism_Ready = 1.095194
write_to_read_ratio_blp_rw_average = 0.000000
GrpLevelPara = 1.254312 

BW Util details:
bwutil = 0.153172 
total_CMD = 28517 
util_bw = 4368 
Wasted_Col = 1912 
Wasted_Row = 194 
Idle = 22043 

BW Util Bottlenecks: 
RCDc_limit = 414 
RCDWRc_limit = 0 
WTRc_limit = 0 
RTWc_limit = 0 
CCDLc_limit = 1632 
rwq = 0 
CCDLc_limit_alone = 1632 
WTRc_limit_alone = 0 
RTWc_limit_alone = 0 

Commands details: 
total_CMD = 28517 
n_nop = 26278 
Read = 2184 
Write = 0 
L2_Alloc = 0 
L2_WB = 0 
n_act = 36 
n_pre = 20 
n_ref = 0 
n_req = 2184 
total_req = 2184 

Dual Bus Interface Util: 
issued_total_row = 56 
issued_total_col = 2184 
Row_Bus_Util =  0.001964 
CoL_Bus_Util = 0.076586 
Either_Row_CoL_Bus_Util = 0.078515 
Issued_on_Two_Bus_Simul_Util = 0.000035 
issued_two_Eff = 0.000447 
queue_avg = 0.176281 


dram_util_bins: 0 0 0 0 0 0 0 0 0 0
dram_eff_bins: 0 0 0 0 0 0 0 0 0 0
mrqq: max=10 avg=0.176281

========= L2 cache stats =========
L2_cache_bank[0]: Access = 1665, Miss = 1167, Miss_rate = 0.701, Pending_hits = 423, Reservation_fails = 0
L2_cache_bank[1]: Access = 1636, Miss = 1161, Miss_rate = 0.710, Pending_hits = 366, Reservation_fails = 0
L2_cache_bank[2]: Access = 1639, Miss = 1163, Miss_rate = 0.710, Pending_hits = 371, Reservation_fails = 0
L2_cache_bank[3]: Access = 1638, Miss = 1162, Miss_rate = 0.709, Pending_hits = 373, Reservation_fails = 0
L2_cache_bank[4]: Access = 1641, Miss = 1165, Miss_rate = 0.710, Pending_hits = 345, Reservation_fails = 0
L2_cache_bank[5]: Access = 1631, Miss = 1165, Miss_rate = 0.714, Pending_hits = 365, Reservation_fails = 0
L2_cache_bank[6]: Access = 1640, Miss = 1166, Miss_rate = 0.711, Pending_hits = 381, Reservation_fails = 0
[...]
DRAM[6]: 16 bks, busW=4 BL=8 CL=16, tRRD=8 tCCD=2, tRCD=16 tRAS=37 tRP=16 tRC=52
n_cmd=127298 n_nop=116070 n_act=238 n_pre=222 n_ref_event=315552 n_req=10584 n_rd=10522 n_rd_L2_A=0 n_write=0 n_wr_bk=248 bw_util=0.1692
n_activity=56681 dram_eff=0.38
bk0: 722a 124479i bk1: 726a 124365i bk2: 686a 124516i bk3: 684a 124433i bk4: 652a 125646i bk5: 652a 125652i bk6: 640a 125783i bk7: 640a 125670i bk8: 640a 125816i bk9: 640a 125829i bk10: 640a 125852i bk11: 640a 125858i bk12: 640a 125902i bk13: 640a 125818i bk14: 640a 125839i bk15: 640a 125765i 

------------------------------------------------------------------------

Row_Buffer_Locality = 0.979025
Row_Buffer_Locality_read = 0.982323
Row_Buffer_Locality_write = 0.419355
Bank_Level_Parallism = 1.322477
Bank_Level_Parallism_Col = 1.252151
Bank_Level_Parallism_Ready = 1.066506
write_to_read_ratio_blp_rw_average = 0.039995
GrpLevelPara = 1.243900 

BW Util details:
bwutil = 0.169209 
total_CMD = 127298 
util_bw = 21540 
Wasted_Col = 11046 
Wasted_Row = 1587 
Idle = 93125 

BW Util Bottlenecks: 
RCDc_limit = 2546 
RCDWRc_limit = 233 
WTRc_limit = 573 
RTWc_limit = 776 
CCDLc_limit = 8551 
rwq = 0 
CCDLc_limit_alone = 8502 
WTRc_limit_alone = 537 
RTWc_limit_alone = 763 

Commands details: 
total_CMD = 127298 
n_nop = 116070 
Read = 10522 
Write = 0 
L2_Alloc = 0 
L2_WB = 248 
n_act = 238 
n_pre = 222 
n_ref = 315552 
n_req = 10584 
total_req = 10770 

Dual Bus Interface Util: 
issued_total_row = 460 
issued_total_col = 10770 
Row_Bus_Util =  0.003614 
CoL_Bus_Util = 0.084605 
Either_Row_CoL_Bus_Util = 0.088202 
Issued_on_Two_Bus_Simul_Util = 0.000016 
issued_two_Eff = 0.000178 
queue_avg = 0.232415 


dram_util_bins: 0 0 0 0 0 0 0 0 0 0
dram_eff_bins: 0 0 0 0 0 0 0 0 0 0
mrqq: max=16 avg=0.232415
Memory Partition 7: 
Cache L2_bank_014:
MSHR contents

Cache L2_bank_015:
MSHR contents

In Dram Latency Queue (total = 0): 
DRAM[7]: 16 bks, busW=4 BL=8 CL=16, tRRD=8 tCCD=2, tRCD=16 tRAS=37 tRP=16 tRC=52
n_cmd=127298 n_nop=116078 n_act=236 n_pre=220 n_ref_event=0 n_req=10582 n_rd=10520 n_rd_L2_A=0 n_write=0 n_wr_bk=248 bw_util=0.1692
n_activity=55981 dram_eff=0.3847
bk0: 722a 124305i bk1: 724a 124419i bk2: 684a 124529i bk3: 686a 124424i bk4: 652a 125574i bk5: 652a 125572i bk6: 640a 125749i bk7: 640a 125725i bk8: 640a 125804i bk9: 640a 125803i bk10: 640a 125870i bk11: 640a 125761i bk12: 640a 125886i bk13: 640a 125789i bk14: 640a 125917i bk15: 640a 125822i 

------------------------------------------------------------------------

Row_Buffer_Locality = 0.979210
Row_Buffer_Locality_read = 0.982414
Row_Buffer_Locality_write = 0.435484
Bank_Level_Parallism = 1.337902
Bank_Level_Parallism_Col = 1.269684
Bank_Level_Parallism_Ready = 1.071926
write_to_read_ratio_blp_rw_average = 0.048696
GrpLevelPara = 1.263644 

BW Util details:
bwutil = 0.169178 
total_CMD = 127298 
util_bw = 21536 
Wasted_Col = 10764 
Wasted_Row = 1608 
Idle = 93390 

BW Util Bottlenecks: 
RCDc_limit = 2473 
RCDWRc_limit = 210 
WTRc_limit = 433 
RTWc_limit = 1006 
CCDLc_limit = 8331 
rwq = 0 
CCDLc_limit_alone = 8295 
WTRc_limit_alone = 429 
RTWc_limit_alone = 974 

Commands details: 
total_CMD = 127298 
n_nop = 116078 
Read = 10520 
Write = 0 
L2_Alloc = 0 
L2_WB = 248 
n_act = 236 
n_pre = 220 
n_ref = 0 
n_req = 10582 
total_req = 10768 

Dual Bus Interface Util: 
issued_total_row = 456 
issued_total_col = 10768 
Row_Bus_Util =  0.003582 
CoL_Bus_Util = 0.084589 
Either_Row_CoL_Bus_Util = 0.088140 
Issued_on_Two_Bus_Simul_Util = 0.000031 
issued_two_Eff = 0.000357 
queue_avg = 0.246815 


dram_util_bins: 0 0 0 0 0 0 0 0 0 0
dram_eff_bins: 0 0 0 0 0 0 0 0 0 0
mrqq: max=15 avg=0.246815
Memory Partition 8: 
Cache L2_bank_016:
MSHR contents

Cache L2_bank_017:
MSHR contents

In Dram Latency Queue (total = 0): 
DRAM[8]: 16 bks, busW=4 BL=8 CL=16, tRRD=8 tCCD=2, tRCD=16 tRAS=37 tRP=16 tRC=52
n_cmd=127298 n_nop=116080 n_act=236 n_pre=220 n_ref_event=0 n_req=10582 n_rd=10521 n_rd_L2_A=0 n_write=0 n_wr_bk=244 bw_util=0.1691
n_activity=55505 dram_eff=0.3879
bk0: 726a 124490i bk1: 723a 124309i bk2: 684a 124557i bk3: 684a 124395i bk4: 652a 125598i bk5: 652a 125535i bk6: 640a 125767i bk7: 640a 125744i bk8: 640a 125778i bk9: 640a 125772i bk10: 640a 125897i bk11: 640a 125851i bk12: 640a 125900i bk13: 640a 125865i bk14: 640a 125825i bk15: 640a 125809i 

------------------------------------------------------------------------

Row_Buffer_Locality = 0.979210
Row_Buffer_Locality_read = 0.982416
Row_Buffer_Locality_write = 0.426230
Bank_Level_Parallism = 1.342214
Bank_Level_Parallism_Col = 1.275377
Bank_Level_Parallism_Ready = 1.075197
write_to_read_ratio_blp_rw_average = 0.041856
GrpLevelPara = 1.269469 

BW Util details:
bwutil = 0.169131 
total_CMD = 127298 
util_bw = 21530 
Wasted_Col = 10508 
Wasted_Row = 1636 
Idle = 93624 

BW Util Bottlenecks: 
RCDc_limit = 2464 
RCDWRc_limit = 214 
WTRc_limit = 373 
RTWc_limit = 828 
CCDLc_limit = 8144 
rwq = 0 
CCDLc_limit_alone = 8113 
WTRc_limit_alone = 350 
RTWc_limit_alone = 820 

Commands details: 
total_CMD = 127298 
n_nop = 116080 
Read = 10521 
Write = 0 
L2_Alloc = 0 
L2_WB = 244 
n_act = 236 
n_pre = 220 
n_ref = 0 
n_req = 10582 
total_req = 10765 

Dual Bus Interface Util: 
issued_total_row = 456 
issued_total_col = 10765 
Row_Bus_Util =  0.003582 
CoL_Bus_Util = 0.084565 
Either_Row_CoL_Bus_Util = 0.088124 
Issued_on_Two_Bus_Simul_Util = 0.000024 
issued_two_Eff = 0.000267 
queue_avg = 0.247608 


dram_util_bins: 0 0 0 0 0 0 0 0 0 0
dram_eff_bins: 0 0 0 0 0 0 0 0 0 0
mrqq: max=22 avg=0.247608
Memory Partition 9: 
Cache L2_bank_018:
MSHR contents

Cache L2_bank_019:
MSHR contents

In Dram Latency Queue (total = 0): 
DRAM[9]: 16 bks, busW=4 BL=8 CL=16, tRRD=8 tCCD=2, tRCD=16 tRAS=37 tRP=16 tRC=52
n_cmd=127298 n_nop=116082 n_act=230 n_pre=214 n_ref_event=0 n_req=10587 n_rd=10525 n_rd_L2_A=0 n_write=0 n_wr_bk=248 bw_util=0.1693
n_activity=55464 dram_eff=0.3885
bk0: 724a 124414i bk1: 727a 124359i bk2: 686a 124600i bk3: 684a 124445i bk4: 652a 125567i bk5: 652a 125556i bk6: 640a 125716i bk7: 640a 125672i bk8: 640a 125790i bk9: 640a 125892i bk10: 640a 125834i bk11: 640a 125824i bk12: 640a 125882i bk13: 640a 125876i bk14: 640a 125699i bk15: 640a 125790i 

------------------------------------------------------------------------

Row_Buffer_Locality = 0.979787
Row_Buffer_Locality_read = 0.982708
Row_Buffer_Locality_write = 0.483871
Bank_Level_Parallism = 1.345988
Bank_Level_Parallism_Col = 1.278279
Bank_Level_Parallism_Ready = 1.076638
write_to_read_ratio_blp_rw_average = 0.038702
GrpLevelPara = 1.265746 

BW Util details:
bwutil = 0.169256 
total_CMD = 127298 
util_bw = 21546 
Wasted_Col = 10787 
Wasted_Row = 1468 
Idle = 93497 

BW Util Bottlenecks: 
RCDc_limit = 2497 
RCDWRc_limit = 206 
WTRc_limit = 682 
RTWc_limit = 800 
CCDLc_limit = 8328 
rwq = 0 
CCDLc_limit_alone = 8281 
WTRc_limit_alone = 648 
RTWc_limit_alone = 787 

Commands details: 
total_CMD = 127298 
n_nop = 116082 
Read = 10525 
Write = 0 
L2_Alloc = 0 
L2_WB = 248 
n_act = 230 
n_pre = 214 
n_ref = 0 
n_req = 10587 
total_req = 10773 

Dual Bus Interface Util: 
issued_total_row = 444 
issued_total_col = 10773 
Row_Bus_Util =  0.003488 
CoL_Bus_Util = 0.084628 
Either_Row_CoL_Bus_Util = 0.088108 
Issued_on_Two_Bus_Simul_Util = 0.000008 
issued_two_Eff = 0.000089 
queue_avg = 0.241740 


dram_util_bins: 0 0 0 0 0 0 0 0 0 0
dram_eff_bins: 0 0 0 0 0 0 0 0 0 0
mrqq: max=19 avg=0.24174
Memory Partition 10: 
Cache L2_bank_020:
MSHR contents

Cache L2_bank_021:
MSHR contents

In Dram Latency Queue (total = 0): 
DRAM[10]: 16 bks, busW=4 BL=8 CL=16, tRRD=8 tCCD=2, tRCD=16 tRAS=37 tRP=16 tRC=52
n_cmd=127298 n_nop=116089 n_act=230 n_pre=214 n_ref_event=0 n_req=10583 n_rd=10521 n_rd_L2_A=0 n_write=0 n_wr_bk=248 bw_util=0.1692
n_activity=55638 dram_eff=0.3871
bk0: 723a 124607i bk1: 724a 124369i bk2: 684a 124523i bk3: 686a 124480i bk4: 652a 125623i bk5: 652a 125631i bk6: 640a 125808i bk7: 640a 125711i bk8: 640a 125821i bk9: 640a 125727i bk10: 640a 125818i bk11: 640a 125855i bk12: 640a 125872i bk13: 640a 125908i bk14: 640a 125772i bk15: 640a 125787i 

------------------------------------------------------------------------

Row_Buffer_Locality = 0.979779
Row_Buffer_Locality_read = 0.982701
Row_Buffer_Locality_write = 0.483871
Bank_Level_Parallism = 1.343767
Bank_Level_Parallism_Col = 1.269694
Bank_Level_Parallism_Ready = 1.061427
write_to_read_ratio_blp_rw_average = 0.043953
GrpLevelPara = 1.260826 

BW Util details:
bwutil = 0.169194 
total_CMD = 127298 
util_bw = 21538 
Wasted_Col = 10584 
Wasted_Row = 1411 
Idle = 93765 

BW Util Bottlenecks: 
RCDc_limit = 2330 
RCDWRc_limit = 196 
WTRc_limit = 446 
RTWc_limit = 829 
CCDLc_limit = 8309 
rwq = 0 
CCDLc_limit_alone = 8279 
WTRc_limit_alone = 431 
RTWc_limit_alone = 814 

Commands details: 
total_CMD = 127298 
n_nop = 116089 
Read = 10521 
Write = 0 
L2_Alloc = 0 
L2_WB = 248 
n_act = 230 
n_pre = 214 
n_ref = 0 
n_req = 10583 
total_req = 10769 

Dual Bus Interface Util: 
issued_total_row = 444 
issued_total_col = 10769 
Row_Bus_Util =  0.003488 
CoL_Bus_Util = 0.084597 
Either_Row_CoL_Bus_Util = 0.088053 
Issued_on_Two_Bus_Simul_Util = 0.000031 
issued_two_Eff = 0.000357 
queue_avg = 0.240899 


dram_util_bins: 0 0 0 0 0 0 0 0 0 0
dram_eff_bins: 0 0 0 0 0 0 0 0 0 0
mrqq: max=14 avg=0.240899
Memory Partition 11: 
Cache L2_bank_022:
MSHR contents

Cache L2_bank_023:
MSHR contents

In Dram Latency Queue (total = 0): 
DRAM[11]: 16 bks, busW=4 BL=8 CL=16, tRRD=8 tCCD=2, tRCD=16 tRAS=37 tRP=16 tRC=52
n_cmd=127298 n_nop=116094 n_act=228 n_pre=212 n_ref_event=0 n_req=10580 n_rd=10518 n_rd_L2_A=0 n_write=0 n_wr_bk=248 bw_util=0.1691
n_activity=55026 dram_eff=0.3913
bk0: 724a 124404i bk1: 722a 124321i bk2: 684a 124661i bk3: 684a 124542i bk4: 652a 125622i bk5: 652a 125497i bk6: 640a 125788i bk7: 640a 125694i bk8: 640a 125772i bk9: 640a 125741i bk10: 640a 125788i bk11: 640a 125825i bk12: 640a 125822i bk13: 640a 125877i bk14: 640a 125883i bk15: 640a 125827i 

------------------------------------------------------------------------

Row_Buffer_Locality = 0.979962
Row_Buffer_Locality_read = 0.982791
Row_Buffer_Locality_write = 0.500000
Bank_Level_Parallism = 1.352293
Bank_Level_Parallism_Col = 1.286236
Bank_Level_Parallism_Ready = 1.076302
write_to_read_ratio_blp_rw_average = 0.045168
GrpLevelPara = 1.277217 

BW Util details:
bwutil = 0.169146 
total_CMD = 127298 
util_bw = 21532 
Wasted_Col = 10513 
Wasted_Row = 1423 
Idle = 93830 

BW Util Bottlenecks: 
RCDc_limit = 2334 
RCDWRc_limit = 196 
WTRc_limit = 516 
RTWc_limit = 923 
CCDLc_limit = 8175 
rwq = 0 
CCDLc_limit_alone = 8126 
WTRc_limit_alone = 505 
RTWc_limit_alone = 885 

Commands details: 
total_CMD = 127298 
n_nop = 116094 
Read = 10518 
Write = 0 
L2_Alloc = 0 
L2_WB = 248 
n_act = 228 
n_pre = 212 
n_ref = 0 
n_req = 10580 
total_req = 10766 

Dual Bus Interface Util: 
issued_total_row = 440 
issued_total_col = 10766 
Row_Bus_Util =  0.003456 
CoL_Bus_Util = 0.084573 
Either_Row_CoL_Bus_Util = 0.088014 
Issued_on_Two_Bus_Simul_Util = 0.000016 
issued_two_Eff = 0.000179 
queue_avg = 0.223130 


dram_util_bins: 0 0 0 0 0 0 0 0 0 0
dram_eff_bins: 0 0 0 0 0 0 0 0 0 0
mrqq: max=10 avg=0.22313

========= L2 cache stats =========
L2_cache_bank[0]: Access = 7824, Miss = 5563, Miss_rate = 0.711, Pending_hits = 1686, Reservation_fails = 0
L2_cache_bank[1]: Access = 7783, Miss = 5551, Miss_rate = 0.713, Pending_hits = 1651, Reservation_fails = 0
L2_cache_bank[2]: Access = 7817, Miss = 5553, Miss_rate = 0.710, Pending_hits = 1671, Reservation_fails = 0
L2_cache_bank[3]: Access = 7814, Miss = 5552, Miss_rate = 0.711, Pending_hits = 1673, Reservation_fails = 0
L2_cache_bank[4]: Access = 7804, Miss = 5556, Miss_rate = 0.712, Pending_hits = 1620, Reservation_fails = 0
L2_cache_bank[5]: Access = 7803, Miss = 5539, Miss_rate = 0.710, Pending_hits = 1635, Reservation_fails = 0
L2_cache_bank[6]: Access = 7838, Miss = 5547, Miss_rate = 0.708, Pending_hits = 1694, Reservation_fails = 0
L2_cache_bank[7]: Access = 7825, Miss = 5547, Miss_rate = 0.709, Pending_hits = 1672, Reservation_fails = 0
L2_cache_bank[8]: Access = 7765, Miss = 5542, Miss_rate = 0.714, Pending_hits = 1710, Reservation_fails = 0
L2_cache_bank[9]: Access = 7785, Miss = 5543, Miss_rate = 0.712, Pending_hits = 1746, Reservation_fails = 0
L2_cache_bank[10]: Access = 7784, Miss = 5544, Miss_rate = 0.712, Pending_hits = 1702, Reservation_fails = 0
L2_cache_bank[11]: Access = 7757, Miss = 5538, Miss_rate = 0.714, Pending_hits = 1655, Reservation_fails = 0
L2_cache_bank[12]: Access = 7768, Miss = 5543, Miss_rate = 0.714, Pending_hits = 1690, Reservation_fails = 0
L2_cache_bank[13]: Access = 7785, Miss = 5547, Miss_rate = 0.713, Pending_hits = 1674, Reservation_fails = 0
L2_cache_bank[14]: Access = 7749, Miss = 5538, Miss_rate = 0.715, Pending_hits = 1637, Reservation_fails = 0
L2_cache_bank[15]: Access = 7755, Miss = 5547, Miss_rate = 0.715, Pending_hits = 1668, Reservation_fails = 0
L2_cache_bank[16]: Access = 7769, Miss = 5544, Miss_rate = 0.714, Pending_hits = 1669, Reservation_fails = 0
L2_cache_bank[17]: Access = 7746, Miss = 5543, Miss_rate = 0.716, Pending_hits = 1631, Reservation_fails = 0
L2_cache_bank[18]: Access = 7730, Miss = 5549, Miss_rate = 0.718, Pending_hits = 1625, Reservation_fails = 0
L2_cache_bank[19]: Access = 7744, Miss = 5549, Miss_rate = 0.717, Pending_hits = 1684, Reservation_fails = 0
L2_cache_bank[20]: Access = 7743, Miss = 5543, Miss_rate = 0.716, Pending_hits = 1671, Reservation_fails = 0
L2_cache_bank[21]: Access = 7723, Miss = 5545, Miss_rate = 0.718, Pending_hits = 1634, Reservation_fails = 0
L2_cache_bank[22]: Access = 7731, Miss = 5538, Miss_rate = 0.716, Pending_hits = 1578, Reservation_fails = 0
L2_cache_bank[23]: Access = 7739, Miss = 5536, Miss_rate = 0.715, Pending_hits = 1612, Reservation_fails = 0
L2_total_cache_accesses = 186581
L2_total_cache_misses = 133097
L2_total_cache_miss_rate = 0.7133
L2_total_cache_pending_hits = 39888
L2_total_cache_reservation_fails = 0
L2_total_cache_breakdown:
	L2_cache_stats_breakdown[GLOBAL_ACC_R][HIT] = 12515
	L2_cache_stats_breakdown[GLOBAL_ACC_R][HIT_RESERVED] = 39491
	L2_cache_stats_breakdown[GLOBAL_ACC_R][MISS] = 31251
	L2_cache_stats_breakdown[GLOBAL_ACC_R][RESERVATION_FAIL] = 0
	L2_cache_stats_breakdown[GLOBAL_ACC_R][SECTOR_MISS] = 95013
	L2_cache_stats_breakdown[LOCAL_ACC_R][HIT] = 0
	L2_cache_stats_breakdown[LOCAL_ACC_R][HIT_RESERVED] = 0
	L2_cache_stats_breakdown[LOCAL_ACC_R][MISS] = 0
	L2_cache_stats_breakdown[LOCAL_ACC_R][RESERVATION_FAIL] = 0
	L2_cache_stats_breakdown[LOCAL_ACC_R][SECTOR_MISS] = 0
	L2_cache_stats_breakdown[CONST_ACC_R][HIT] = 0
	L2_cache_stats_breakdown[CONST_ACC_R][HIT_RESERVED] = 26
	L2_cache_stats_breakdown[CONST_ACC_R][MISS] = 1
	L2_cache_stats_breakdown[CONST_ACC_R][RESERVATION_FAIL] = 0
	L2_cache_stats_breakdown[CONST_ACC_R][SECTOR_MISS] = 1
	L2_cache_stats_breakdown[TEXTURE_ACC_R][HIT] = 0
	L2_cache_stats_breakdown[TEXTURE_ACC_R][HIT_RESERVED] = 0
	L2_cache_stats_breakdown[TEXTURE_ACC_R][MISS] = 0
	L2_cache_stats_breakdown[TEXTURE_ACC_R][RESERVATION_FAIL] = 0
	L2_cache_stats_breakdown[TEXTURE_ACC_R][SECTOR_MISS] = 0
	L2_cache_stats_breakdown[GLOBAL_ACC_W][HIT] = 1036
	L2_cache_stats_breakdown[GLOBAL_ACC_W][HIT_RESERVED] = 0
	L2_cache_stats_breakdown[GLOBAL_ACC_W][MISS] = 1356
	L2_cache_stats_breakdown[GLOBAL_ACC_W][RESERVATION_FAIL] = 0
	L2_cache_stats_breakdown[GLOBAL_ACC_W][SECTOR_MISS] = 5443
	L2_cache_stats_breakdown[LOCAL_ACC_W][HIT] = 0
	L2_cache_stats_breakdown[LOCAL_ACC_W][HIT_RESERVED] = 0
	L2_cache_stats_breakdown[LOCAL_ACC_W][MISS] = 0
	L2_cache_stats_breakdown[LOCAL_ACC_W][RESERVATION_FAIL] = 0
	L2_cache_stats_breakdown[LOCAL_ACC_W][SECTOR_MISS] = 0
	L2_cache_stats_breakdown[L1_WRBK_ACC][HIT] = 0
	L2_cache_stats_breakdown[L1_WRBK_ACC][HIT_RESERVED] = 0
	L2_cache_stats_breakdown[L1_WRBK_ACC][MISS] = 0
	L2_cache_stats_breakdown[L1_WRBK_ACC][RESERVATION_FAIL] = 0
	L2_cache_stats_breakdown[L1_WRBK_ACC][SECTOR_MISS] = 0
	L2_cache_stats_breakdown[L2_WRBK_ACC][HIT] = 0
	L2_cache_stats_breakdown[L2_WRBK_ACC][HIT_RESERVED] = 0
	L2_cache_stats_breakdown[L2_WRBK_ACC][MISS] = 0
	L2_cache_stats_breakdown[L2_WRBK_ACC][RESERVATION_FAIL] = 0
	L2_cache_stats_breakdown[L2_WRBK_ACC][SECTOR_MISS] = 0
	L2_cache_stats_breakdown[INST_ACC_R][HIT] = 45
	L2_cache_stats_breakdown[INST_ACC_R][HIT_RESERVED] = 371
	L2_cache_stats_breakdown[INST_ACC_R][MISS] = 8
	L2_cache_stats_breakdown[INST_ACC_R][RESERVATION_FAIL] = 0
	L2_cache_stats_breakdown[INST_ACC_R][SECTOR_MISS] = 24
	L2_cache_stats_breakdown[L1_WR_ALLOC_R][HIT] = 0
	L2_cache_stats_breakdown[L1_WR_ALLOC_R][HIT_RESERVED] = 0
	L2_cache_stats_breakdown[L1_WR_ALLOC_R][MISS] = 0
	L2_cache_stats_breakdown[L1_WR_ALLOC_R][RESERVATION_FAIL] = 0
	L2_cache_stats_breakdown[L1_WR_ALLOC_R][SECTOR_MISS] = 0
	L2_cache_stats_breakdown[L2_WR_ALLOC_R][HIT] = 0
	L2_cache_stats_breakdown[L2_WR_ALLOC_R][HIT_RESERVED] = 0
	L2_cache_stats_breakdown[L2_WR_ALLOC_R][MISS] = 0
	L2_cache_stats_breakdown[L2_WR_ALLOC_R][RESERVATION_FAIL] = 0
	L2_cache_stats_breakdown[L2_WR_ALLOC_R][SECTOR_MISS] = 0
	L2_cache_stats_breakdown[GLOBAL_ACC_R][TOTAL_ACCESS] = 178270
	L2_cache_stats_breakdown[CONST_ACC_R][TOTAL_ACCESS] = 28
	L2_cache_stats_breakdown[GLOBAL_ACC_W][TOTAL_ACCESS] = 7835
	L2_cache_stats_breakdown[INST_ACC_R][TOTAL_ACCESS] = 448
L2_total_cache_reservation_fail_breakdown:
L2_cache_data_port_util = 0.008
L2_cache_fill_port_util = 0.074

icnt_total_pkts_mem_to_simt=186581
icnt_total_pkts_simt_to_mem=186231
LD_mem_lat_dist  0 0 0 0 0 0 0 0 0 0 0 0 0 0 0 0 0 0 0 0 0 0 0 0 0 0 0
ST_mem_lat_dist  0 0 0 0 0 0 0 0 0 0 0 0 0 0 0 0 0 0 0 0 0 0 0 0 0 0 0
----------------------------Interconnect-DETAILS--------------------------------
Class 0:
Packet latency average = 7.30007
	minimum = 5
	maximum = 74
Network latency average = 7.30007
	minimum = 5
	maximum = 74
Slowest packet = 372298
Flit latency average = 7.30007
	minimum = 5
	maximum = 74
Slowest flit = 372298
Fragmentation average = 0
	minimum = 0
	maximum = 0
Injected packet rate average = 0.13581
	minimum = 0.104884 (at node 35)
	maximum = 0.235913 (at node 7)
Accepted packet rate average = 0.13581
	minimum = 0.104884 (at node 35)
	maximum = 0.235913 (at node 7)
Injected flit rate average = 0.13581
	minimum = 0.104884 (at node 35)
	maximum = 0.235913 (at node 7)
Accepted flit rate average= 0.13581
	minimum = 0.104884 (at node 35)
	maximum = 0.235913 (at node 7)
Injected packet length average = 1
Accepted packet length average = 1
Total in-flight flits = 0 (0 measured)
====== Overall Traffic Statistics ======
====== Traffic class 0 ======
Packet latency average = 7.88899 (5 samples)
	minimum = 5 (5 samples)
	maximum = 84.4 (5 samples)
Network latency average = 7.88857 (5 samples)
	minimum = 5 (5 samples)
	maximum = 84.4 (5 samples)
Flit latency average = 7.88857 (5 samples)
	minimum = 5 (5 samples)
	maximum = 84.4 (5 samples)
Fragmentation average = 0 (5 samples)
	minimum = 0 (5 samples)
	maximum = 0 (5 samples)
Injected packet rate average = 0.138612 (5 samples)
	minimum = 0.108553 (5 samples)
	maximum = 0.230035 (5 samples)
Accepted packet rate average = 0.138612 (5 samples)
	minimum = 0.108553 (5 samples)
	maximum = 0.23035 (5 samples)
Injected flit rate average = 0.138612 (5 samples)
	minimum = 0.108553 (5 samples)
	maximum = 0.230035 (5 samples)
Accepted flit rate average = 0.138612 (5 samples)
	minimum = 0.108553 (5 samples)
	maximum = 0.23035 (5 samples)
Injected packet size average = 1 (5 samples)
Accepted packet size average = 1 (5 samples)
Hops average = 1 (5 samples)
----------------------------END-of-Interconnect-DETAILS-------------------------


gpgpu_simulation_time = 0 days, 0 hrs, 1 min, 58 sec (118 sec)
gpgpu_simulation_rate = 533166 (inst/sec)
gpgpu_simulation_rate = 601 (cycle/sec)
gpgpu_silicon_slowdown = 1392678x
GPGPU-Sim: synchronize waiting for inactive GPU simulation
GPGPU-Sim API: Stream Manager State
GPGPU-Sim: detected inactive GPU simulation thread
GPGPU-Sim: *** exit detected ***
