

        *** GPGPU-Sim Simulator Version 4.0.0  [build gpgpu-sim_git-commit-90ec3399763d7c8512cfe7dc193473086c38ca38_modified_0.0] ***


GPGPU-Sim PTX: simulation mode 0 (can change with PTX_SIM_MODE_FUNC environment variable:
               1=functional simulation only, 0=detailed performance simulator)
GPGPU-Sim PTX: overriding embedded ptx with ptx file (PTX_SIM_USE_PTX_FILE is set)
GPGPU-Sim: Configuration options:

-save_embedded_ptx                      0 # saves ptx files embedded in binary as <n>.ptx
-keep                                   0 # keep intermediate files created by GPGPU-Sim when interfacing with external programs
-gpgpu_ptx_save_converted_ptxplus                    0 # Saved converted ptxplus to a file
-gpgpu_occupancy_sm_number                   75 # The SM number to pass to ptxas when getting register usage for computing GPU occupancy. This parameter is required in the config.
-ptx_opcode_latency_int      4,13,4,5,145,32 # Opcode latencies for integers <ADD,MAX,MUL,MAD,DIV,SHFL>Default 1,1,19,25,145,32
-ptx_opcode_latency_fp          4,13,4,5,39 # Opcode latencies for single precision floating points <ADD,MAX,MUL,MAD,DIV>Default 1,1,1,1,30
-ptx_opcode_latency_dp         8,19,8,8,330 # Opcode latencies for double precision floating points <ADD,MAX,MUL,MAD,DIV>Default 8,8,8,8,335
-ptx_opcode_latency_sfu                  100 # Opcode latencies for SFU instructionsDefault 8
-ptx_opcode_latency_tesnor                   64 # Opcode latencies for Tensor instructionsDefault 64
-ptx_opcode_initiation_int          2,2,2,2,8,4 # Opcode initiation intervals for integers <ADD,MAX,MUL,MAD,DIV,SHFL>Default 1,1,4,4,32,4
-ptx_opcode_initiation_fp            2,2,2,2,4 # Opcode initiation intervals for single precision floating points <ADD,MAX,MUL,MAD,DIV>Default 1,1,1,1,5
-ptx_opcode_initiation_dp          4,4,4,4,130 # Opcode initiation intervals for double precision floating points <ADD,MAX,MUL,MAD,DIV>Default 8,8,8,8,130
-ptx_opcode_initiation_sfu                    8 # Opcode initiation intervals for sfu instructionsDefault 8
-ptx_opcode_initiation_tensor                   64 # Opcode initiation intervals for tensor instructionsDefault 64
-cdp_latency         7200,8000,100,12000,1600 # CDP API latency <cudaStreamCreateWithFlags, cudaGetParameterBufferV2_init_perWarp, cudaGetParameterBufferV2_perKernel, cudaLaunchDeviceV2_init_perWarp, cudaLaunchDevicV2_perKernel>Default 7200,8000,100,12000,1600
-network_mode                           2 # Interconnection network mode
-inter_config_file                   mesh # Interconnection network config file
-icnt_in_buffer_limit                  512 # in_buffer_limit
-icnt_out_buffer_limit                  512 # out_buffer_limit
-icnt_subnets                           2 # subnets
-icnt_arbiter_algo                      1 # arbiter_algo
-icnt_verbose                           0 # inct_verbose
-icnt_grant_cycles                      1 # grant_cycles
-gpgpu_ptx_use_cuobjdump                    1 # Use cuobjdump to extract ptx and sass from binaries
-gpgpu_experimental_lib_support                    0 # Try to extract code from cuda libraries [Broken because of unknown cudaGetExportTable]
-checkpoint_option                      0 #  checkpointing flag (0 = no checkpoint)
-checkpoint_kernel                      1 #  checkpointing during execution of which kernel (1- 1st kernel)
-checkpoint_CTA                         0 #  checkpointing after # of CTA (< less than total CTA)
-resume_option                          0 #  resume flag (0 = no resume)
-resume_kernel                          0 #  Resume from which kernel (1= 1st kernel)
-resume_CTA                             0 #  resume from which CTA 
-checkpoint_CTA_t                       0 #  resume from which CTA 
-checkpoint_insn_Y                      0 #  resume from which CTA 
-gpgpu_ptx_convert_to_ptxplus                    0 # Convert SASS (native ISA) to ptxplus and run ptxplus
-gpgpu_ptx_force_max_capability                   75 # Force maximum compute capability
-gpgpu_ptx_inst_debug_to_file                    0 # Dump executed instructions' debug information to file
-gpgpu_ptx_inst_debug_file       inst_debug.txt # Executed instructions' debug output file
-gpgpu_ptx_inst_debug_thread_uid                    1 # Thread UID for executed instructions' debug output
-gpgpu_simd_model                       1 # 1 = post-dominator
-gpgpu_shader_core_pipeline              1024:32 # shader core pipeline config, i.e., {<nthread>:<warpsize>}
-gpgpu_tex_cache:l1  N:4:128:256,L:R:m:N:L,T:512:8,128:2 # per-shader L1 texture cache  (READ-ONLY) config  {<nsets>:<bsize>:<assoc>,<rep>:<wr>:<alloc>:<wr_alloc>,<mshr>:<N>:<merge>,<mq>:<rf>}
-gpgpu_const_cache:l1 N:128:64:8,L:R:f:N:L,S:2:64,4 # per-shader L1 constant memory cache  (READ-ONLY) config  {<nsets>:<bsize>:<assoc>,<rep>:<wr>:<alloc>:<wr_alloc>,<mshr>:<N>:<merge>,<mq>} 
-gpgpu_cache:il1     N:64:128:16,L:R:f:N:L,S:2:48,4 # shader L1 instruction cache config  {<nsets>:<bsize>:<assoc>,<rep>:<wr>:<alloc>:<wr_alloc>,<mshr>:<N>:<merge>,<mq>} 
-gpgpu_cache:dl1     S:1:128:512,L:L:s:N:L,A:256:8,16:0,32 # per-shader L1 data cache config  {<nsets>:<bsize>:<assoc>,<rep>:<wr>:<alloc>:<wr_alloc>,<mshr>:<N>:<merge>,<mq> | none}
-gpgpu_l1_banks                         4 # The number of L1 cache banks
-gpgpu_l1_banks_byte_interleaving                   32 # l1 banks byte interleaving granularity
-gpgpu_l1_banks_hashing_function                    0 # l1 banks hashing function
-gpgpu_l1_latency                      20 # L1 Hit Latency
-gpgpu_smem_latency                    20 # smem Latency
-gpgpu_cache:dl1PrefL1                 none # per-shader L1 data cache config  {<nsets>:<bsize>:<assoc>,<rep>:<wr>:<alloc>:<wr_alloc>,<mshr>:<N>:<merge>,<mq> | none}
-gpgpu_cache:dl1PrefShared                 none # per-shader L1 data cache config  {<nsets>:<bsize>:<assoc>,<rep>:<wr>:<alloc>:<wr_alloc>,<mshr>:<N>:<merge>,<mq> | none}
-gpgpu_gmem_skip_L1D                    0 # global memory access skip L1D cache (implements -Xptxas -dlcm=cg, default=no skip)
-gpgpu_perfect_mem                      0 # enable perfect memory mode (no cache miss)
-n_regfile_gating_group                    4 # group of lanes that should be read/written together)
-gpgpu_clock_gated_reg_file                    0 # enable clock gated reg file for power calculations
-gpgpu_clock_gated_lanes                    0 # enable clock gated lanes for power calculations
-gpgpu_shader_registers                65536 # Number of registers per shader core. Limits number of concurrent CTAs. (default 8192)
-gpgpu_registers_per_block                65536 # Maximum number of registers per CTA. (default 8192)
-gpgpu_ignore_resources_limitation                    0 # gpgpu_ignore_resources_limitation (default 0)
-gpgpu_shader_cta                      32 # Maximum number of concurrent CTAs in shader (default 8)
-gpgpu_num_cta_barriers                   16 # Maximum number of named barriers per CTA (default 16)
-gpgpu_n_clusters                      30 # number of processing clusters
-gpgpu_n_cores_per_cluster                    1 # number of simd cores per cluster
-gpgpu_n_cluster_ejection_buffer_size                   32 # number of packets in ejection buffer
-gpgpu_n_ldst_response_buffer_size                    2 # number of response packets in ld/st unit ejection buffer
-gpgpu_shmem_per_block                65536 # Size of shared memory per thread block or CTA (default 48kB)
-gpgpu_shmem_size                   65536 # Size of shared memory per shader core (default 16kB)
-gpgpu_adaptive_cache_config                    0 # adaptive_cache_config
-gpgpu_shmem_sizeDefault                65536 # Size of shared memory per shader core (default 16kB)
-gpgpu_shmem_size_PrefL1                16384 # Size of shared memory per shader core (default 16kB)
-gpgpu_shmem_size_PrefShared                16384 # Size of shared memory per shader core (default 16kB)
-gpgpu_shmem_num_banks                   32 # Number of banks in the shared memory in each shader core (default 16)
-gpgpu_shmem_limited_broadcast                    0 # Limit shared memory to do one broadcast per cycle (default on)
-gpgpu_shmem_warp_parts                    1 # Number of portions a warp is divided into for shared memory bank conflict check 
-gpgpu_mem_unit_ports                    1 # The number of memory transactions allowed per core cycle
-gpgpu_shmem_warp_parts                    1 # Number of portions a warp is divided into for shared memory bank conflict check 
-gpgpu_warpdistro_shader                   -1 # Specify which shader core to collect the warp size distribution from
-gpgpu_warp_issue_shader                    0 # Specify which shader core to collect the warp issue distribution from
-gpgpu_local_mem_map                    1 # Mapping from local memory space address to simulated GPU physical address space (default = enabled)
-gpgpu_num_reg_banks                   16 # Number of register banks (default = 8)
-gpgpu_reg_bank_use_warp_id                    0 # Use warp ID in mapping registers to banks (default = off)
-gpgpu_sub_core_model                    1 # Sub Core Volta/Pascal model (default = off)
-gpgpu_enable_specialized_operand_collector                    0 # enable_specialized_operand_collector
-gpgpu_operand_collector_num_units_sp                    4 # number of collector units (default = 4)
-gpgpu_operand_collector_num_units_dp                    0 # number of collector units (default = 0)
-gpgpu_operand_collector_num_units_sfu                    4 # number of collector units (default = 4)
-gpgpu_operand_collector_num_units_int                    0 # number of collector units (default = 0)
-gpgpu_operand_collector_num_units_tensor_core                    4 # number of collector units (default = 4)
-gpgpu_operand_collector_num_units_mem                    2 # number of collector units (default = 2)
-gpgpu_operand_collector_num_units_gen                    8 # number of collector units (default = 0)
-gpgpu_operand_collector_num_in_ports_sp                    1 # number of collector unit in ports (default = 1)
-gpgpu_operand_collector_num_in_ports_dp                    0 # number of collector unit in ports (default = 0)
-gpgpu_operand_collector_num_in_ports_sfu                    1 # number of collector unit in ports (default = 1)
-gpgpu_operand_collector_num_in_ports_int                    0 # number of collector unit in ports (default = 0)
-gpgpu_operand_collector_num_in_ports_tensor_core                    1 # number of collector unit in ports (default = 1)
-gpgpu_operand_collector_num_in_ports_mem                    1 # number of collector unit in ports (default = 1)
-gpgpu_operand_collector_num_in_ports_gen                    8 # number of collector unit in ports (default = 0)
-gpgpu_operand_collector_num_out_ports_sp                    1 # number of collector unit in ports (default = 1)
-gpgpu_operand_collector_num_out_ports_dp                    0 # number of collector unit in ports (default = 0)
-gpgpu_operand_collector_num_out_ports_sfu                    1 # number of collector unit in ports (default = 1)
-gpgpu_operand_collector_num_out_ports_int                    0 # number of collector unit in ports (default = 0)
-gpgpu_operand_collector_num_out_ports_tensor_core                    1 # number of collector unit in ports (default = 1)
-gpgpu_operand_collector_num_out_ports_mem                    1 # number of collector unit in ports (default = 1)
-gpgpu_operand_collector_num_out_ports_gen                    8 # number of collector unit in ports (default = 0)
-gpgpu_coalesce_arch                   75 # Coalescing arch (GT200 = 13, Fermi = 20)
-gpgpu_num_sched_per_core                    4 # Number of warp schedulers per core
-gpgpu_max_insn_issue_per_warp                    1 # Max number of instructions that can be issued per warp in one cycle by scheduler (either 1 or 2)
-gpgpu_dual_issue_diff_exec_units                    1 # should dual issue use two different execution unit resources (Default = 1)
-gpgpu_simt_core_sim_order                    1 # Select the simulation order of cores in a cluster (0=Fix, 1=Round-Robin)
-gpgpu_pipeline_widths 4,0,4,4,4,4,0,4,4,4,8,4,4 # Pipeline widths ID_OC_SP,ID_OC_DP,ID_OC_INT,ID_OC_SFU,ID_OC_MEM,OC_EX_SP,OC_EX_DP,OC_EX_INT,OC_EX_SFU,OC_EX_MEM,EX_WB,ID_OC_TENSOR_CORE,OC_EX_TENSOR_CORE
-gpgpu_tensor_core_avail                    1 # Tensor Core Available (default=0)
-gpgpu_num_sp_units                     4 # Number of SP units (default=1)
-gpgpu_num_dp_units                     0 # Number of DP units (default=0)
-gpgpu_num_int_units                    4 # Number of INT units (default=0)
-gpgpu_num_sfu_units                    4 # Number of SF units (default=1)
-gpgpu_num_tensor_core_units                    4 # Number of tensor_core units (default=1)
-gpgpu_num_mem_units                    1 # Number if ldst units (default=1) WARNING: not hooked up to anything
-gpgpu_scheduler                      lrr # Scheduler configuration: < lrr | gto | two_level_active > If two_level_active:<num_active_warps>:<inner_prioritization>:<outer_prioritization>For complete list of prioritization values see shader.h enum scheduler_prioritization_typeDefault: gto
-gpgpu_concurrent_kernel_sm                    0 # Support concurrent kernels on a SM (default = disabled)
-gpgpu_perfect_inst_const_cache                    1 # perfect inst and const cache mode, so all inst and const hits in the cache(default = disabled)
-gpgpu_inst_fetch_throughput                    4 # the number of fetched intruction per warp each cycle
-gpgpu_reg_file_port_throughput                    2 # the number ports of the register file
-specialized_unit_1         0,4,4,4,4,BRA # specialized unit config {<enabled>,<num_units>:<latency>:<initiation>,<ID_OC_SPEC>:<OC_EX_SPEC>,<NAME>}
-specialized_unit_2         0,4,4,4,4,BRA # specialized unit config {<enabled>,<num_units>:<latency>:<initiation>,<ID_OC_SPEC>:<OC_EX_SPEC>,<NAME>}
-specialized_unit_3         0,4,4,4,4,BRA # specialized unit config {<enabled>,<num_units>:<latency>:<initiation>,<ID_OC_SPEC>:<OC_EX_SPEC>,<NAME>}
-specialized_unit_4         0,4,4,4,4,BRA # specialized unit config {<enabled>,<num_units>:<latency>:<initiation>,<ID_OC_SPEC>:<OC_EX_SPEC>,<NAME>}
-specialized_unit_5         0,4,4,4,4,BRA # specialized unit config {<enabled>,<num_units>:<latency>:<initiation>,<ID_OC_SPEC>:<OC_EX_SPEC>,<NAME>}
-specialized_unit_6         0,4,4,4,4,BRA # specialized unit config {<enabled>,<num_units>:<latency>:<initiation>,<ID_OC_SPEC>:<OC_EX_SPEC>,<NAME>}
-specialized_unit_7         0,4,4,4,4,BRA # specialized unit config {<enabled>,<num_units>:<latency>:<initiation>,<ID_OC_SPEC>:<OC_EX_SPEC>,<NAME>}
-specialized_unit_8         0,4,4,4,4,BRA # specialized unit config {<enabled>,<num_units>:<latency>:<initiation>,<ID_OC_SPEC>:<OC_EX_SPEC>,<NAME>}
-gpgpu_perf_sim_memcpy                    1 # Fill the L2 cache on memcpy
-gpgpu_simple_dram_model                    0 # simple_dram_model with fixed latency and BW
-gpgpu_dram_scheduler                    1 # 0 = fifo, 1 = FR-FCFS (defaul)
-gpgpu_dram_partition_queues          64:64:64:64 # i2$:$2d:d2$:$2i
-l2_ideal                               0 # Use a ideal L2 cache that always hit
-gpgpu_cache:dl2     S:64:128:16,L:B:m:L:P,A:192:4,32:0,32 # unified banked L2 data cache config  {<nsets>:<bsize>:<assoc>,<rep>:<wr>:<alloc>:<wr_alloc>,<mshr>:<N>:<merge>,<mq>}
-gpgpu_cache:dl2_texture_only                    0 # L2 cache used for texture only
-gpgpu_n_mem                           12 # number of memory modules (e.g. memory controllers) in gpu
-gpgpu_n_sub_partition_per_mchannel                    2 # number of memory subpartition in each memory module
-gpgpu_n_mem_per_ctrlr                    1 # number of memory chips per memory controller
-gpgpu_memlatency_stat                   14 # track and display latency statistics 0x2 enables MC, 0x4 enables queue logs
-gpgpu_frfcfs_dram_sched_queue_size                   64 # 0 = unlimited (default); # entries per chip
-gpgpu_dram_return_queue_size                  192 # 0 = unlimited (default); # entries per chip
-gpgpu_dram_buswidth                    2 # default = 4 bytes (8 bytes per cycle at DDR)
-gpgpu_dram_burst_length                   16 # Burst length of each DRAM request (default = 4 data bus cycle)
-dram_data_command_freq_ratio                    4 # Frequency ratio between DRAM data bus and command bus (default = 2 times, i.e. DDR)
-gpgpu_dram_timing_opt nbk=16:CCD=4:RRD=10:RCD=20:RAS=50:RP=20:RC=62: CL=20:WL=8:CDLR=9:WR=20:nbkgrp=4:CCDL=4:RTPL=4 # DRAM timing parameters = {nbk:tCCD:tRRD:tRCD:tRAS:tRP:tRC:CL:WL:tCDLR:tWR:nbkgrp:tCCDL:tRTPL}
-gpgpu_l2_rop_latency                  160 # ROP queue latency (default 85)
-dram_latency                         100 # DRAM latency (default 30)
-dram_dual_bus_interface                    0 # dual_bus_interface (default = 0) 
-dram_bnk_indexing_policy                    0 # dram_bnk_indexing_policy (0 = normal indexing, 1 = Xoring with the higher bits) (Default = 0)
-dram_bnkgrp_indexing_policy                    1 # dram_bnkgrp_indexing_policy (0 = take higher bits, 1 = take lower bits) (Default = 0)
-dram_seperate_write_queue_enable                    0 # Seperate_Write_Queue_Enable
-dram_write_queue_size             32:28:16 # Write_Queue_Size
-dram_elimnate_rw_turnaround                    0 # elimnate_rw_turnaround i.e set tWTR and tRTW = 0
-icnt_flit_size                        40 # icnt_flit_size
-gpgpu_mem_addr_mapping dramid@8;00000000.00000000.00000000.00000000.0000RRRR.RRRRRRRR.RBBBCCCC.BCCSSSSS # mapping memory address to dram model {dramid@<start bit>;<memory address map>}
-gpgpu_mem_addr_test                    0 # run sweep test to check address mapping for aliased address
-gpgpu_mem_address_mask                    1 # 0 = old addressing mask, 1 = new addressing mask, 2 = new add. mask + flipped bank sel and chip sel bits
-gpgpu_memory_partition_indexing                    0 # 0 = no indexing, 1 = bitwise xoring, 2 = IPoly, 3 = custom indexing
-gpuwattch_xml_file         gpuwattch.xml # GPUWattch XML file
-power_simulation_enabled                    1 # Turn on power simulator (1=On, 0=Off)
-power_per_cycle_dump                    0 # Dump detailed power output each cycle
-power_trace_enabled                    0 # produce a file for the power trace (1=On, 0=Off)
-power_trace_zlevel                     6 # Compression level of the power trace output log (0=no comp, 9=highest)
-steady_power_levels_enabled                    0 # produce a file for the steady power levels (1=On, 0=Off)
-steady_state_definition                  8:4 # allowed deviation:number of samples
-gpgpu_max_cycle                        0 # terminates gpu simulation early (0 = no limit)
-gpgpu_max_insn                         0 # terminates gpu simulation early (0 = no limit)
-gpgpu_max_cta                          0 # terminates gpu simulation early (0 = no limit)
-gpgpu_max_completed_cta                    0 # terminates gpu simulation early (0 = no limit)
-gpgpu_runtime_stat                   500 # display runtime statistics such as dram utilization {<freq>:<flag>}
-liveness_message_freq                    1 # Minimum number of seconds between simulation liveness messages (0 = always print)
-gpgpu_compute_capability_major                    7 # Major compute capability version number
-gpgpu_compute_capability_minor                    5 # Minor compute capability version number
-gpgpu_flush_l1_cache                    1 # Flush L1 cache at the end of each kernel call
-gpgpu_flush_l2_cache                    0 # Flush L2 cache at the end of each kernel call
-gpgpu_deadlock_detect                    1 # Stop the simulation at deadlock (1=on (default), 0=off)
-gpgpu_ptx_instruction_classification                    0 # if enabled will classify ptx instruction types per kernel (Max 255 kernels now)
-gpgpu_ptx_sim_mode                     0 # Select between Performance (default) or Functional simulation (1)
-gpgpu_clock_domains 1365.0:1365.0:1365.0:3500.0 # Clock Domain Frequencies in MhZ {<Core Clock>:<ICNT Clock>:<L2 Clock>:<DRAM Clock>}
-gpgpu_max_concurrent_kernel                    8 # maximum kernels that can run concurrently on GPU
-gpgpu_cflog_interval                    0 # Interval between each snapshot in control flow logger
-visualizer_enabled                     0 # Turn on visualizer output (1=On, 0=Off)
-visualizer_outputfile                 NULL # Specifies the output log file for visualizer
-visualizer_zlevel                      6 # Compression level of the visualizer output log (0=no comp, 9=highest)
-gpgpu_stack_size_limit                 1024 # GPU thread stack size
-gpgpu_heap_size_limit              8388608 # GPU malloc heap size23cb92d1ce22c93737ba5de6ecd09f2  /home/ishan/COA/Lab4/gpu-rodinia/cuda/pathfinder/a.out
Extracting PTX file and ptxas options    1: a.1.sm_52.ptx -arch=sm_52
e 
-gpgpu_runtime_sync_depth_limit                    2 # GPU device runtime synchronize depth
-gpgpu_runtime_pending_launch_count_limit                 2048 # GPU device runtime pending launch count
-trace_enabled                          0 # Turn on traces
-trace_components                    none # comma seperated list of traces to enable. Complete list found in trace_streams.tup. Default none
-trace_sampling_core                    0 # The core which is printed using CORE_DPRINTF. Default 0
-trace_sampling_memory_partition                   -1 # The memory partition which is printed using MEMPART_DPRINTF. Default -1 (i.e. all)
-enable_ptx_file_line_stats                    1 # Turn on PTX source line statistic profiling. (1 = On)
-ptx_line_stats_filename gpgpu_inst_stats.txt # Output file for PTX source line statistics.
-gpgpu_kernel_launch_latency                 5000 # Kernel launch latency in cycles. Default: 0
-gpgpu_cdp_enabled                      0 # Turn on CDP
-gpgpu_TB_launch_latency                    0 # thread block launch latency in cycles. Default: 0
DRAM Timing Options:
nbk                                    16 # number of banks
CCD                                     4 # column to column delay
RRD                                    10 # minimal delay between activation of rows in different banks
RCD                                    20 # row to column delay
RAS                                    50 # time needed to activate row
RP                                     20 # time needed to precharge (deactivate) row
RC                                     62 # row cycle time
CDLR                                    9 # switching from write to read (changes tWTR)
WR                                     20 # last data-in to row precharge
CL                                     20 # CAS latency
WL                                      8 # Write latency
nbkgrp                                  4 # number of bank groups
CCDL                                    4 # column to column delay between accesses to different bank groups
RTPL                                    4 # read to precharge delay between accesses to different bank groups
Total number of memory sub partition = 24
addr_dec_mask[CHIP]  = 0000000000000000 	high:64 low:0
addr_dec_mask[BK]    = 0000000000007080 	high:15 low:7
addr_dec_mask[ROW]   = 000000000fff8000 	high:28 low:15
addr_dec_mask[COL]   = 0000000000000f7f 	high:12 low:0
addr_dec_mask[BURST] = 000000000000001f 	high:5 low:0
sub_partition_id_mask = 0000000000000080
GPGPU-Sim uArch: clock freqs: 1365000000.000000:1365000000.000000:1365000000.000000:3500000000.000000
GPGPU-Sim uArch: clock periods: 0.00000000073260073260:0.00000000073260073260:0.00000000073260073260:0.00000000028571428571
*** Initializing Memory Statistics ***
GPGPU-Sim uArch: performance model initialization complete.
self exe links to: /home/ishan/COA/Lab4/gpu-rodinia/cuda/pathfinder/a.out
self exe links to: /home/ishan/COA/Lab4/gpu-rodinia/cuda/pathfinder/a.out
11.0
GPGPU-Sim PTX: __cudaRegisterFatBinary, fat_cubin_handle = 1, filename=default
self exe links to: /home/ishan/COA/Lab4/gpu-rodinia/cuda/pathfinder/a.out
Running md5sum using "md5sum /home/ishan/COA/Lab4/gpu-rodinia/cuda/pathfinder/a.out "
self exe links to: /home/ishan/COA/Lab4/gpu-rodinia/cuda/pathfinder/a.out
Extracting specific PTX file named a.1.sm_52.ptx 
GPGPU-Sim PTX: __cudaRegisterFunction _Z14dynproc_kerneliPiS_S_iiii : hostFun 0x0x55a2969efba4, fat_cubin_handle = 1
GPGPU-Sim PTX: Parsing a.1.sm_52.ptx
GPGPU-Sim PTX: allocating shared region for "_ZZ14dynproc_kerneliPiS_S_iiiiE4prev" from 0x0 to 0x400 (shared memory space)
GPGPU-Sim PTX: allocating shared region for "_ZZ14dynproc_kerneliPiS_S_iiiiE6result" from 0x400 to 0x800 (shared memory space)
GPGPU-Sim PTX: instruction assembly for function '_Z14dynproc_kerneliPiS_S_iiii'...   done.
GPGPU-Sim PTX: finished parsing EMBEDDED .ptx file a.1.sm_52.ptx
GPGPU-Sim PTX: loading globals with explicit initializers... 
GPGPU-Sim PTX: finished loading globals (0 bytes total).
GPGPU-Sim PTX: loading constants with explicit initializers...  done.
GPGPU-Sim PTX: Loading PTXInfo from a.1.sm_52.ptx
GPGPU-Sim PTX: Kernel '_Z14dynproc_kerneliPiS_S_iiii' : regs=18, lmem=0, smem=2048, cmem=368
pyramidHeight: 20
gridSize: [10000]
border:[20]
blockSize: 256
blockGrid:[47]
targetBlock:[216]
GPGPU-Sim PTX: Setting up arguments for 4 bytes starting at 0x7ffc2db50e0c..
GPGPU-Sim PTX: Setting up arguments for 8 bytes starting at 0x7ffc2db50e00..
GPGPU-Sim PTX: Setting up arguments for 8 bytes starting at 0x7ffc2db50df8..
GPGPU-Sim PTX: Setting up arguments for 8 bytes starting at 0x7ffc2db50df0..
GPGPU-Sim PTX: Setting up arguments for 4 bytes starting at 0x7ffc2db50e08..
GPGPU-Sim PTX: Setting up arguments for 4 bytes starting at 0x7ffc2db50dec..
GPGPU-Sim PTX: Setting up arguments for 4 bytes starting at 0x7ffc2db50ea0..
GPGPU-Sim PTX: Setting up arguments for 4 bytes starting at 0x7ffc2db50ea8..

GPGPU-Sim PTX: cudaLaunch for 0x0x55a2969efba4 (mode=performance simulation) on stream 0
GPGPU-Sim PTX: finding reconvergence points for '_Z14dynproc_kerneliPiS_S_iiii'...
GPGPU-Sim PTX: Finding dominators for '_Z14dynproc_kerneliPiS_S_iiii'...
GPGPU-Sim PTX: Finding immediate dominators for '_Z14dynproc_kerneliPiS_S_iiii'...
GPGPU-Sim PTX: Finding postdominators for '_Z14dynproc_kerneliPiS_S_iiii'...
GPGPU-Sim PTX: Finding immediate postdominators for '_Z14dynproc_kerneliPiS_S_iiii'...
GPGPU-Sim PTX: pre-decoding instructions for '_Z14dynproc_kerneliPiS_S_iiii'...
GPGPU-Sim PTX: reconvergence points for _Z14dynproc_kerneliPiS_S_iiii...
GPGPU-Sim PTX:  1 (potential) branch divergence @  PC=0x0c0 (a.1.sm_52.ptx:61) @!%p3 bra BB0_2;
GPGPU-Sim PTX:    immediate post dominator      @  PC=0x110 (a.1.sm_52.ptx:75) bar.sync 0;
GPGPU-Sim PTX:  2 (potential) branch divergence @  PC=0x0c8 (a.1.sm_52.ptx:62) bra.uni BB0_1;
GPGPU-Sim PTX:    immediate post dominator      @  PC=0x0d0 (a.1.sm_52.ptx:65) cvta.to.global.u64 %rd4, %rd2;
GPGPU-Sim PTX:  3 (potential) branch divergence @  PC=0x120 (a.1.sm_52.ptx:77) @%p4 bra BB0_10;
GPGPU-Sim PTX:    immediate post dominator      @  PC=0x338 (a.1.sm_52.ptx:157) and.b16 %rs6, %rs8, 255;
GPGPU-Sim PTX:  4 (potential) branch divergence @  PC=0x208 (a.1.sm_52.ptx:109) @!%p12 bra BB0_6;
GPGPU-Sim PTX:    immediate post dominator      @  PC=0x2b8 (a.1.sm_52.ptx:135) bar.sync 0;
GPGPU-Sim PTX:  5 (potential) branch divergence @  PC=0x210 (a.1.sm_52.ptx:110) bra.uni BB0_5;
GPGPU-Sim PTX:    immediate post dominator      @  PC=0x218 (a.1.sm_52.ptx:113) ld.shared.u32 %r70, [%r2];
GPGPU-Sim PTX:  6 (potential) branch divergence @  PC=0x2c8 (a.1.sm_52.ptx:137) @%p15 bra BB0_10;
GPGPU-Sim PTX:    immediate post dominator      @  PC=0x338 (a.1.sm_52.ptx:157) and.b16 %rs6, %rs8, 255;
GPGPU-Sim PTX:  7 (potential) branch divergence @  PC=0x2d8 (a.1.sm_52.ptx:140) @%p16 bra BB0_9;
GPGPU-Sim PTX:    immediate post dominator      @  PC=0x310 (a.1.sm_52.ptx:150) bar.sync 0;
GPGPU-Sim PTX:  8 (potential) branch divergence @  PC=0x330 (a.1.sm_52.ptx:154) @%p17 bra BB0_4;
GPGPU-Sim PTX:    immediate post dominator      @  PC=0x338 (a.1.sm_52.ptx:157) and.b16 %rs6, %rs8, 255;
GPGPU-Sim PTX:  9 (potential) branch divergence @  PC=0x348 (a.1.sm_52.ptx:159) @%p18 bra BB0_12;
GPGPU-Sim PTX:    immediate post dominator      @  PC=0x390 (a.1.sm_52.ptx:171) ret;
GPGPU-Sim PTX: ... end of reconvergence points for _Z14dynproc_kerneliPiS_S_iiii
GPGPU-Sim PTX: ... done pre-decoding instructions for '_Z14dynproc_kerneliPiS_S_iiii'.
GPGPU-Sim PTX: pushing kernel '_Z14dynproc_kerneliPiS_S_iiii' to stream 0, gridDim= (47,1,1) blockDim = (256,1,1) 
GPGPU-Sim uArch: Shader 0 bind to kernel 1 '_Z14dynproc_kerneliPiS_S_iiii'
GPGPU-Sim uArch: CTA/core = 4, limited by: threads
GPGPU-Sim uArch: Shader 1 bind to kernel 1 '_Z14dynproc_kerneliPiS_S_iiii'
GPGPU-Sim uArch: Shader 2 bind to kernel 1 '_Z14dynproc_kerneliPiS_S_iiii'
GPGPU-Sim uArch: Shader 3 bind to kernel 1 '_Z14dynproc_kerneliPiS_S_iiii'
GPGPU-Sim uArch: Shader 4 bind to kernel 1 '_Z14dynproc_kerneliPiS_S_iiii'
GPGPU-Sim uArch: Shader 5 bind to kernel 1 '_Z14dynproc_kerneliPiS_S_iiii'
GPGPU-Sim uArch: Shader 6 bind to kernel 1 '_Z14dynproc_kerneliPiS_S_iiii'
GPGPU-Sim uArch: Shader 7 bind to kernel 1 '_Z14dynproc_kerneliPiS_S_iiii'
GPGPU-Sim uArch: Shader 8 bind to kernel 1 '_Z14dynproc_kerneliPiS_S_iiii'
GPGPU-Sim uArch: Shader 9 bind to kernel 1 '_Z14dynproc_kerneliPiS_S_iiii'
GPGPU-Sim uArch: Shader 10 bind to kernel 1 '_Z14dynproc_kerneliPiS_S_iiii'
GPGPU-Sim uArch: Shader 11 bind to kernel 1 '_Z14dynproc_kerneliPiS_S_iiii'
GPGPU-Sim uArch: Shader 12 bind to kernel 1 '_Z14dynproc_kerneliPiS_S_iiii'
GPGPU-Sim uArch: Shader 13 bind to kernel 1 '_Z14dynproc_kerneliPiS_S_iiii'
GPGPU-Sim uArch: Shader 14 bind to kernel 1 '_Z14dynproc_kerneliPiS_S_iiii'
GPGPU-Sim uArch: Shader 15 bind to kernel 1 '_Z14dynproc_kerneliPiS_S_iiii'
GPGPU-Sim uArch: Shader 16 bind to kernel 1 '_Z14dynproc_kerneliPiS_S_iiii'
GPGPU-Sim uArch: Shader 17 bind to kernel 1 '_Z14dynproc_kerneliPiS_S_iiii'
GPGPU-Sim uArch: Shader 18 bind to kernel 1 '_Z14dynproc_kerneliPiS_S_iiii'
GPGPU-Sim uArch: Shader 19 bind to kernel 1 '_Z14dynproc_kerneliPiS_S_iiii'
GPGPU-Sim uArch: Shader 20 bind to kernel 1 '_Z14dynproc_kerneliPiS_S_iiii'
GPGPU-Sim uArch: Shader 21 bind to kernel 1 '_Z14dynproc_kerneliPiS_S_iiii'
GPGPU-Sim uArch: Shader 22 bind to kernel 1 '_Z14dynproc_kerneliPiS_S_iiii'
GPGPU-Sim uArch: Shader 23 bind to kernel 1 '_Z14dynproc_kerneliPiS_S_iiii'
GPGPU-Sim uArch: Shader 24 bind to kernel 1 '_Z14dynproc_kerneliPiS_S_iiii'
GPGPU-Sim uArch: Shader 25 bind to kernel 1 '_Z14dynproc_kerneliPiS_S_iiii'
GPGPU-Sim uArch: Shader 26 bind to kernel 1 '_Z14dynproc_kerneliPiS_S_iiii'
GPGPU-Sim uArch: Shader 27 bind to kernel 1 '_Z14dynproc_kerneliPiS_S_iiii'
GPGPU-Sim uArch: Shader 28 bind to kernel 1 '_Z14dynproc_kerneliPiS_S_iiii'
GPGPU-Sim uArch: Shader 29 bind to kernel 1 '_Z14dynproc_kerneliPiS_S_iiii'
Destroy streams for kernel 1: size 0
kernel_name = _Z14dynproc_kerneliPiS_S_iiii 
kernel_launch_uid = 1 
gpu_sim_cycle = 19935
gpu_sim_insn = 12710760
gpu_ipc =     637.6102
gpu_tot_sim_cycle = 19935
gpu_tot_sim_insn = 12710760
gpu_tot_ipc =     637.6102
gpu_tot_issued_cta = 47
gpu_occupancy = 39.2316% 
gpu_tot_occupancy = 39.2316% 
max_total_param_size = 0
gpu_stall_dramfull = 0
gpu_stall_icnt2sh    = 0
partiton_level_parallism =       1.5619
partiton_level_parallism_total  =       1.5619
partiton_level_parallism_util =       3.1003
partiton_level_parallism_util_total  =       3.1003
L2_BW  =      68.2227 GB/Sec
L2_BW_total  =      68.2227 GB/Sec
gpu_total_sim_rate=270441

========= Core cache stats =========
L1I_cache:
	L1I_total_cache_accesses = 0
	L1I_total_cache_misses = 0
	L1I_total_cache_pending_hits = 0
	L1I_total_cache_reservation_fails = 0
L1D_cache:
	L1D_cache_core[0]: Access = 1604, Miss = 1604, Miss_rate = 1.000, Pending_hits = 0, Reservation_fails = 0
	L1D_cache_core[1]: Access = 1640, Miss = 1640, Miss_rate = 1.000, Pending_hits = 0, Reservation_fails = 0
	L1D_cache_core[2]: Access = 1640, Miss = 1640, Miss_rate = 1.000, Pending_hits = 0, Reservation_fails = 0
	L1D_cache_core[3]: Access = 1640, Miss = 1640, Miss_rate = 1.000, Pending_hits = 0, Reservation_fails = 0
	L1D_cache_core[4]: Access = 1640, Miss = 1640, Miss_rate = 1.000, Pending_hits = 0, Reservation_fails = 0
	L1D_cache_core[5]: Access = 1640, Miss = 1640, Miss_rate = 1.000, Pending_hits = 0, Reservation_fails = 0
	L1D_cache_core[6]: Access = 1640, Miss = 1640, Miss_rate = 1.000, Pending_hits = 0, Reservation_fails = 0
	L1D_cache_core[7]: Access = 1640, Miss = 1640, Miss_rate = 1.000, Pending_hits = 0, Reservation_fails = 0
	L1D_cache_core[8]: Access = 1640, Miss = 1640, Miss_rate = 1.000, Pending_hits = 0, Reservation_fails = 0
	L1D_cache_core[9]: Access = 1640, Miss = 1640, Miss_rate = 1.000, Pending_hits = 0, Reservation_fails = 0
	L1D_cache_core[10]: Access = 1640, Miss = 1640, Miss_rate = 1.000, Pending_hits = 0, Reservation_fails = 0
	L1D_cache_core[11]: Access = 1640, Miss = 1640, Miss_rate = 1.000, Pending_hits = 0, Reservation_fails = 0
	L1D_cache_core[12]: Access = 1640, Miss = 1640, Miss_rate = 1.000, Pending_hits = 0, Reservation_fails = 0
	L1D_cache_core[13]: Access = 1640, Miss = 1640, Miss_rate = 1.000, Pending_hits = 0, Reservation_fails = 0
	L1D_cache_core[14]: Access = 1640, Miss = 1640, Miss_rate = 1.000, Pending_hits = 0, Reservation_fails = 0
	L1D_cache_core[15]: Access = 1640, Miss = 1640, Miss_rate = 1.000, Pending_hits = 0, Reservation_fails = 0
	L1D_cache_core[16]: Access = 1076, Miss = 1076, Miss_rate = 1.000, Pending_hits = 0, Reservation_fails = 0
	L1D_cache_core[17]: Access = 820, Miss = 820, Miss_rate = 1.000, Pending_hits = 0, Reservation_fails = 0
	L1D_cache_core[18]: Access = 820, Miss = 820, Miss_rate = 1.000, Pending_hits = 0, Reservation_fails = 0
	L1D_cache_core[19]: Access = 820, Miss = 820, Miss_rate = 1.000, Pending_hits = 0, Reservation_fails = 0
	L1D_cache_core[20]: Access = 820, Miss = 820, Miss_rate = 1.000, Pending_hits = 0, Reservation_fails = 0
	L1D_cache_core[21]: Access = 820, Miss = 820, Miss_rate = 1.000, Pending_hits = 0, Reservation_fails = 0
	L1D_cache_core[22]: Access = 820, Miss = 820, Miss_rate = 1.000, Pending_hits = 0, Reservation_fails = 0
	L1D_cache_core[23]: Access = 820, Miss = 820, Miss_rate = 1.000, Pending_hits = 0, Reservation_fails = 0
	L1D_cache_core[24]: Access = 820, Miss = 820, Miss_rate = 1.000, Pending_hits = 0, Reservation_fails = 0
	L1D_cache_core[25]: Access = 820, Miss = 820, Miss_rate = 1.000, Pending_hits = 0, Reservation_fails = 0
	L1D_cache_core[26]: Access = 820, Miss = 820, Miss_rate = 1.000, Pending_hits = 0, Reservation_fails = 0
	L1D_cache_core[27]: Access = 820, Miss = 820, Miss_rate = 1.000, Pending_hits = 0, Reservation_fails = 0
	L1D_cache_core[28]: Access = 820, Miss = 820, Miss_rate = 1.000, Pending_hits = 0, Reservation_fails = 0
	L1D_cache_core[29]: Access = 820, Miss = 820, Miss_rate = 1.000, Pending_hits = 0, Reservation_fails = 0
	L1D_total_cache_accesses = 37940
	L1D_total_cache_misses = 37940
	L1D_total_cache_miss_rate = 1.0000
	L1D_total_cache_pending_hits = 0
	L1D_total_cache_reservation_fails = 0
	L1D_cache_data_port_util = 0.000
	L1D_cache_fill_port_util = 0.069
L1C_cache:
	L1C_total_cache_accesses = 0
	L1C_total_cache_misses = 0
	L1C_total_cache_pending_hits = 0
	L1C_total_cache_reservation_fails = 0
L1T_cache:
	L1T_total_cache_accesses = 0
	L1T_total_cache_misses = 0
	L1T_total_cache_pending_hits = 0
	L1T_total_cache_reservation_fails = 0

Total_core_cache_stats:
	Total_core_cache_stats_breakdown[GLOBAL_ACC_R][HIT] = 0
	Total_core_cache_stats_breakdown[GLOBAL_ACC_R][HIT_RESERVED] = 0
	Total_core_cache_stats_breakdown[GLOBAL_ACC_R][MISS] = 19476
	Total_core_cache_stats_breakdown[GLOBAL_ACC_R][RESERVATION_FAIL] = 0
	Total_core_cache_stats_breakdown[GLOBAL_ACC_R][SECTOR_MISS] = 16890
	Total_core_cache_stats_breakdown[LOCAL_ACC_R][HIT] = 0
	Total_core_cache_stats_breakdown[LOCAL_ACC_R][HIT_RESERVED] = 0
	Total_core_cache_stats_breakdown[LOCAL_ACC_R][MISS] = 0
	Total_core_cache_stats_breakdown[LOCAL_ACC_R][RESERVATION_FAIL] = 0
	Total_core_cache_stats_breakdown[LOCAL_ACC_R][SECTOR_MISS] = 0
	Total_core_cache_stats_breakdown[CONST_ACC_R][HIT] = 0
	Total_core_cache_stats_breakdown[CONST_ACC_R][HIT_RESERVED] = 0
	Total_core_cache_stats_breakdown[CONST_ACC_R][MISS] = 0
	Total_core_cache_stats_breakdown[CONST_ACC_R][RESERVATION_FAIL] = 0
	Total_core_cache_stats_breakdown[CONST_ACC_R][SECTOR_MISS] = 0
	Total_core_cache_stats_breakdown[TEXTURE_ACC_R][HIT] = 0
	Total_core_cache_stats_breakdown[TEXTURE_ACC_R][HIT_RESERVED] = 0
	Total_core_cache_stats_breakdown[TEXTURE_ACC_R][MISS] = 0
	Total_core_cache_stats_breakdown[TEXTURE_ACC_R][RESERVATION_FAIL] = 0
	Total_core_cache_stats_breakdown[TEXTURE_ACC_R][SECTOR_MISS] = 0
	Total_core_cache_stats_breakdown[GLOBAL_ACC_W][HIT] = 0
	Total_core_cache_stats_breakdown[GLOBAL_ACC_W][HIT_RESERVED] = 0
	Total_core_cache_stats_breakdown[GLOBAL_ACC_W][MISS] = 1574
	Total_core_cache_stats_breakdown[GLOBAL_ACC_W][RESERVATION_FAIL] = 0
	Total_core_cache_stats_breakdown[GLOBAL_ACC_W][SECTOR_MISS] = 0
	Total_core_cache_stats_breakdown[LOCAL_ACC_W][HIT] = 0
	Total_core_cache_stats_breakdown[LOCAL_ACC_W][HIT_RESERVED] = 0
	Total_core_cache_stats_breakdown[LOCAL_ACC_W][MISS] = 0
	Total_core_cache_stats_breakdown[LOCAL_ACC_W][RESERVATION_FAIL] = 0
	Total_core_cache_stats_breakdown[LOCAL_ACC_W][SECTOR_MISS] = 0
	Total_core_cache_stats_breakdown[L1_WRBK_ACC][HIT] = 0
	Total_core_cache_stats_breakdown[L1_WRBK_ACC][HIT_RESERVED] = 0
	Total_core_cache_stats_breakdown[L1_WRBK_ACC][MISS] = 0
	Total_core_cache_stats_breakdown[L1_WRBK_ACC][RESERVATION_FAIL] = 0
	Total_core_cache_stats_breakdown[L1_WRBK_ACC][SECTOR_MISS] = 0
	Total_core_cache_stats_breakdown[L2_WRBK_ACC][HIT] = 0
	Total_core_cache_stats_breakdown[L2_WRBK_ACC][HIT_RESERVED] = 0
	Total_core_cache_stats_breakdown[L2_WRBK_ACC][MISS] = 0
	Total_core_cache_stats_breakdown[L2_WRBK_ACC][RESERVATION_FAIL] = 0
	Total_core_cache_stats_breakdown[L2_WRBK_ACC][SECTOR_MISS] = 0
	Total_core_cache_stats_breakdown[INST_ACC_R][HIT] = 0
	Total_core_cache_stats_breakdown[INST_ACC_R][HIT_RESERVED] = 0
	Total_core_cache_stats_breakdown[INST_ACC_R][MISS] = 0
	Total_core_cache_stats_breakdown[INST_ACC_R][RESERVATION_FAIL] = 0
	Total_core_cache_stats_breakdown[INST_ACC_R][SECTOR_MISS] = 0
	Total_core_cache_stats_breakdown[L1_WR_ALLOC_R][HIT] = 0
	Total_core_cache_stats_breakdown[L1_WR_ALLOC_R][HIT_RESERVED] = 0
	Total_core_cache_stats_breakdown[L1_WR_ALLOC_R][MISS] = 0
	Total_core_cache_stats_breakdown[L1_WR_ALLOC_R][RESERVATION_FAIL] = 0
	Total_core_cache_stats_breakdown[L1_WR_ALLOC_R][SECTOR_MISS] = 0
	Total_core_cache_stats_breakdown[L2_WR_ALLOC_R][HIT] = 0
	Total_core_cache_stats_breakdown[L2_WR_ALLOC_R][HIT_RESERVED] = 0
	Total_core_cache_stats_breakdown[L2_WR_ALLOC_R][MISS] = 0
	Total_core_cache_stats_breakdown[L2_WR_ALLOC_R][RESERVATION_FAIL] = 0
	Total_core_cache_stats_breakdown[L2_WR_ALLOC_R][SECTOR_MISS] = 0
	Total_core_cache_stats_breakdown[GLOBAL_ACC_R][TOTAL_ACCESS] = 36366
	Total_core_cache_stats_breakdown[GLOBAL_ACC_W][TOTAL_ACCESS] = 1574

Total_core_cache_fail_stats:
ctas_completed 47, Shader 0 warp_id issue ditsribution:
warp_id:
0, 1, 2, 3, 4, 5, 6, 7, 8, 9, 10, 11, 12, 13, 14, 15, 
distro:
1166, 1166, 1166, 1166, 1166, 1166, 1166, 1166, 1166, 1166, 1166, 1166, 1166, 1166, 1166, 1166, 
gpgpu_n_tot_thrd_icount = 13941152
gpgpu_n_tot_w_icount = 435661
gpgpu_n_stall_shd_mem = 29778
gpgpu_n_mem_read_local = 0
gpgpu_n_mem_write_local = 0
gpgpu_n_mem_read_global = 29562
gpgpu_n_mem_write_global = 1574
gpgpu_n_mem_texture = 0
gpgpu_n_mem_const = 0
gpgpu_n_load_insn  = 229320
gpgpu_n_store_insn = 10000
gpgpu_n_shmem_insn = 1306720
gpgpu_n_sstarr_insn = 0
gpgpu_n_tex_insn = 0
gpgpu_n_const_mem_insn = 0
gpgpu_n_param_mem_insn = 84224
gpgpu_n_shmem_bkconflict = 0
gpgpu_n_cache_bkconflict = 0
gpgpu_n_intrawarp_mshr_merge = 0
gpgpu_n_cmem_portconflict = 0
gpgpu_stall_shd_mem[c_mem][resource_stall] = 0
gpgpu_stall_shd_mem[s_mem][bk_conf] = 0
gpgpu_stall_shd_mem[gl_mem][resource_stall] = 29778
gpgpu_stall_shd_mem[gl_mem][coal_stall] = 0
gpgpu_stall_shd_mem[gl_mem][data_port_stall] = 0
gpu_reg_bank_conflict_stalls = 0
Warp Occupancy Distribution:
Stall:13822	W0_Idle:42079	W0_Scoreboard:1226070	W1:0	W2:0	W3:0	W4:0	W5:0	W6:0	W7:0	W8:0	W9:0	W10:0	W11:0	W12:3219	W13:2484	W14:2484	W15:2484	W16:2484	W17:2484	W18:2484	W19:2484	W20:3035	W21:2484	W22:2484	W23:2484	W24:2484	W25:2484	W26:2484	W27:2484	W28:2484	W29:2484	W30:2484	W31:2484	W32:384695
single_issue_nums: WS0:109053	WS1:109053	WS2:109053	WS3:108502	
dual_issue_nums: WS0:0	WS1:0	WS2:0	WS3:0	
traffic_breakdown_coretomem[GLOBAL_ACC_R] = 236496 {8:29562,}
traffic_breakdown_coretomem[GLOBAL_ACC_W] = 62960 {40:1574,}
traffic_breakdown_memtocore[GLOBAL_ACC_R] = 1182480 {40:29562,}
traffic_breakdown_memtocore[GLOBAL_ACC_W] = 12592 {8:1574,}
maxmflatency = 384 
max_icnt2mem_latency = 82 
maxmrqlatency = 84 
max_icnt2sh_latency = 38 
averagemflatency = 296 
avg_icnt2mem_latency = 25 
avg_mrq_latency = 4 
avg_icnt2sh_latency = 2 
mrq_lat_table:18235 	1710 	1692 	2009 	1695 	877 	32 	0 	0 	0 	0 	0 	0 	0 	0 	0 	0 	0 	0 	0 	0 	0 	0 	0 	0 	0 	0 	0 	0 	0 	0 	0 	
dq_lat_table:0 	0 	0 	0 	0 	0 	0 	0 	0 	0 	0 	0 	0 	0 	0 	0 	0 	0 	0 	0 	0 	0 	0 	0 	0 	0 	0 	0 	0 	0 	0 	0 	
mf_lat_table:0 	0 	0 	0 	0 	0 	0 	3288 	27848 	0 	0 	0 	0 	0 	0 	0 	0 	0 	0 	0 	0 	0 	0 	0 	0 	0 	0 	0 	0 	0 	0 	0 	
icnt2mem_lat_table:0 	0 	0 	0 	29399 	1642 	95 	0 	0 	0 	0 	0 	0 	0 	0 	0 	0 	0 	0 	0 	0 	0 	0 	0 	
icnt2sh_lat_table:0 	25785 	4471 	795 	80 	5 	0 	0 	0 	0 	0 	0 	0 	0 	0 	0 	0 	0 	0 	0 	0 	0 	0 	0 	
mf_lat_pw_table:0 	0 	0 	0 	0 	0 	0 	1 	28 	0 	0 	0 	0 	0 	0 	0 	0 	0 	0 	0 	0 	0 	0 	0 	0 	0 	0 	0 	0 	0 	0 	0 	
maximum concurrent accesses to same row:
dram[0]:        64        64        64        64        64        64        64        64        64        64        64        64        64        64        64        64 
dram[1]:        64        64        64        64        64        64        64        64        64        64        64        64        64        64        64        64 
dram[2]:        64        64        64        64        64        64        64        64        64        64        64        64        64        64        64        64 
dram[3]:        64        64        64        64        64        64        64        64        64        64        64        64        64        64        64        64 
dram[4]:        64        64        64        64        64        64        64        64        64        64        64        64        64        64        64        64 
dram[5]:        64        64        64        64        64        64        64        64        64        64        64        64        64        64        64        64 
dram[6]:        64        64        64        64        64        64        64        64        64        64        64        64        64        64        64        64 
dram[7]:        64        64        64        64        64        64        64        64        64        64        64        64        64        64        64        64 
dram[8]:        64        64        64        64        64        64        64        64        64        64        64        64        64        64        64        64 
dram[9]:        64        64        64        64        64        64        64        64        64        64        64        64        64        64        64        64 
dram[10]:        64        64        64        64        64        64        64        64        64        64        64        64        64        64        64        64 
dram[11]:        64        64        64        64        64        64        64        64        64        64        64        64        64        64        64        64 
maximum service time to same row:
dram[0]:     11115     11103     11887     11892     12541     12538     13216     13201     14464     14447     15154     15151     15814     15819     16467     16478 
dram[1]:     11099     11094     11907     11945     12567     12563     13200     13212     14421     14419     15120     15105     15824     15802     16483     16464 
dram[2]:     11125     10703     11957     11954     12644     12645     13322     13318     14418     14430     15101     15106     15801     15807     16459     16472 
dram[3]:     10698     10696     11954     11957     12645     12636     13323     13296     14426     14429     15126     15117     15897     15885     16481     16538 
dram[4]:     11163     11176     11951     11948     12635     12633     13288     13286     13936     13932     14582     14574     15881     15855     16536     16541 
dram[5]:     11173     11169     11950     11948     12649     12649     13337     13331     13937     14468     14572     15215     15853     15856     16489     16485 
dram[6]:     11168     11179     11957     11955     12641     12622     13328     13294     14478     14489     15268     15271     15943     15940     16491     16626 
dram[7]:     11210     11205     11948     11946     12629     12628     13304     13315     14476     14473     15276     15269     15951     15946     16631     16622 
dram[8]:     11170     11166     11955     11948     12636     12627     13302     13300     14483     14599     15281     15286     15945     15961     16615     16660 
dram[9]:     11185     11171     11943     11883     12628     12551     13309     13319     14475     14473     15291     15280     15960     15958     16658     16634 
dram[10]:     11157     11142     11882     11897     12546     12543     13323     13313     14478     14476     15299     15300     15953     15952     16642     16637 
dram[11]:     11107     11104     11902     11888     12560     12555     13311     13316     14483     14465     15169     15164     15835     15815     16642     16470 
average row accesses per activate:
dram[0]: 91.000000 90.000000 72.000000 72.000000 128.000000 128.000000 128.000000 128.000000 128.000000 128.000000 128.000000 128.000000 128.000000 128.000000 128.000000 128.000000 
dram[1]: 90.000000 90.000000 72.000000 72.000000 128.000000 128.000000 128.000000 128.000000 128.000000 128.000000 128.000000 128.000000 128.000000 128.000000 128.000000 128.000000 
dram[2]: 90.000000 90.000000 74.000000 74.000000 128.000000 128.000000 128.000000 128.000000 128.000000 128.000000 128.000000 128.000000 128.000000 128.000000 128.000000 128.000000 
dram[3]: 90.000000 90.000000 74.000000 74.000000 128.000000 128.000000 128.000000 128.000000 128.000000 128.000000 128.000000 128.000000 128.000000 128.000000 128.000000 128.000000 
dram[4]: 90.000000 90.000000 74.000000 74.000000 128.000000 128.000000 128.000000 128.000000 128.000000 128.000000 128.000000 128.000000 128.000000 128.000000 128.000000 128.000000 
dram[5]: 90.000000 90.000000 74.000000 74.000000 128.000000 128.000000 128.000000 128.000000 128.000000 128.000000 128.000000 128.000000 128.000000 128.000000 128.000000 128.000000 
dram[6]: 90.000000 90.000000 74.000000 74.000000 128.000000 128.000000 128.000000 128.000000 128.000000 128.000000 128.000000 128.000000 128.000000 128.000000 128.000000 128.000000 
dram[7]: 90.000000 90.000000 72.000000 72.000000 128.000000 128.000000 128.000000 128.000000 128.000000 128.000000 128.000000 128.000000 128.000000 128.000000 128.000000 128.000000 
dram[8]: 90.000000 90.000000 72.000000 72.000000 128.000000 128.000000 128.000000 128.000000 128.000000 128.000000 128.000000 128.000000 128.000000 128.000000 128.000000 128.000000 
dram[9]: 90.000000 90.000000 72.000000 72.000000 128.000000 128.000000 128.000000 128.000000 128.000000 128.000000 128.000000 128.000000 128.000000 128.000000 128.000000 128.000000 
dram[10]: 90.000000 90.000000 72.000000 72.000000 128.000000 128.000000 128.000000 128.000000 128.000000 128.000000 128.000000 128.000000 128.000000 128.000000 128.000000 128.000000 
dram[11]: 90.000000 90.000000 72.000000 72.000000 128.000000 128.000000 128.000000 128.000000 128.000000 128.000000 128.000000 128.000000 128.000000 128.000000 128.000000 128.000000 
average row locality = 26250/240 = 109.375000
number of total memory accesses made:
dram[0]:         0         0         0         0         0         0         0         0         0         0         0         0         0         0         0         0 
dram[1]:         0         0         0         0         0         0         0         0         0         0         0         0         0         0         0         0 
dram[2]:         0         0         0         0         0         0         0         0         0         0         0         0         0         0         0         0 
dram[3]:         0         0         0         0         0         0         0         0         0         0         0         0         0         0         0         0 
dram[4]:         0         0         0         0         0         0         0         0         0         0         0         0         0         0         0         0 
dram[5]:         0         0         0         0         0         0         0         0         0         0         0         0         0         0         0         0 
dram[6]:         0         0         0         0         0         0         0         0         0         0         0         0         0         0         0         0 
dram[7]:         0         0         0         0         0         0         0         0         0         0         0         0         0         0         0         0 
dram[8]:         0         0         0         0         0         0         0         0         0         0         0         0         0         0         0         0 
dram[9]:         0         0         0         0         0         0         0         0         0         0         0         0         0         0         0         0 
dram[10]:         0         0         0         0         0         0         0         0         0         0         0         0         0         0         0         0 
dram[11]:         0         0         0         0         0         0         0         0         0         0         0         0         0         0         0         0 
total accesses: 0
min_bank_accesses = 0!
min_chip_accesses = 0!
number of total read accesses:
dram[0]:       182       180       144       144       128       128       128       128       128       128       128       128       128       128       128       128 
dram[1]:       180       180       144       144       128       128       128       128       128       128       128       128       128       128       128       128 
dram[2]:       180       180       148       148       128       128       128       128       128       128       128       128       128       128       128       128 
dram[3]:       180       180       148       148       128       128       128       128       128       128       128       128       128       128       128       128 
dram[4]:       180       180       148       148       128       128       128       128       128       128       128       128       128       128       128       128 
dram[5]:       180       180       148       148       128       128       128       128       128       128       128       128       128       128       128       128 
dram[6]:       180       180       148       148       128       128       128       128       128       128       128       128       128       128       128       128 
dram[7]:       180       180       144       144       128       128       128       128       128       128       128       128       128       128       128       128 
dram[8]:       180       180       144       144       128       128       128       128       128       128       128       128       128       128       128       128 
dram[9]:       180       180       144       144       128       128       128       128       128       128       128       128       128       128       128       128 
dram[10]:       180       180       144       144       128       128       128       128       128       128       128       128       128       128       128       128 
dram[11]:       180       180       144       144       128       128       128       128       128       128       128       128       128       128       128       128 
total dram reads = 26250
bank skew: 182/128 = 1.42
chip skew: 2192/2184 = 1.00
number of total write accesses:
dram[0]:         0         0         0         0         0         0         0         0         0         0         0         0         0         0         0         0 
dram[1]:         0         0         0         0         0         0         0         0         0         0         0         0         0         0         0         0 
dram[2]:         0         0         0         0         0         0         0         0         0         0         0         0         0         0         0         0 
dram[3]:         0         0         0         0         0         0         0         0         0         0         0         0         0         0         0         0 
dram[4]:         0         0         0         0         0         0         0         0         0         0         0         0         0         0         0         0 
dram[5]:         0         0         0         0         0         0         0         0         0         0         0         0         0         0         0         0 
dram[6]:         0         0         0         0         0         0         0         0         0         0         0         0         0         0         0         0 
dram[7]:         0         0         0         0         0         0         0         0         0         0         0         0         0         0         0         0 
dram[8]:         0         0         0         0         0         0         0         0         0         0         0         0         0         0         0         0 
dram[9]:         0         0         0         0         0         0         0         0         0         0         0         0         0         0         0         0 
dram[10]:         0         0         0         0         0         0         0         0         0         0         0         0         0         0         0         0 
dram[11]:         0         0         0         0         0         0         0         0         0         0         0         0         0         0         0         0 
total dram writes = 0
min_bank_accesses = 0!
min_chip_accesses = 0!
average mf latency per bank:
dram[0]:        347       354       403       400       361       362       341       350       332       339       320       335       330       330       324       321
dram[1]:        357       367       391       391       350       346       333       349       333       332       333       325       324       335       332       335
dram[2]:        352       363       394       404       344       354       352       345       323       333       330       334       328       327       328       327
dram[3]:        363       363       395       394       360       382       349       364       330       341       321       332       330       332       324       324
dram[4]:        348       377       391       402       356       357       339       342       340       338       330       335       334       334       324       336
dram[5]:        352       359       396       403       359       362       353       363       315       334       327       329       328       330       334       328
dram[6]:        357       375       397       396       350       361       336       348       337       331       329       333       328       340       321       328
dram[7]:        353       373       391       397       351       352       344       339       335       332       328       333       338       343       327       328
dram[8]:        362       362       397       403       353       362       342       361       321       331       323       328       321       328       332       333
dram[9]:        349       367       400       401       349       359       348       346       330       337       337       338       327       335       318       332
dram[10]:        357       366       395       394       356       359       348       347       332       337       326       328       334       337       331       325
dram[11]:        362       368       395       398       347       352       331       345       333       330       329       327       324       329       328       332
maximum mf latency per bank:
dram[0]:        324       363       332       346       344       365       323       369       321       365       321       330       322       331       336       330
dram[1]:        322       361       334       341       330       337       325       341       322       332       318       324       317       338       342       332
dram[2]:        326       355       346       374       348       364       347       384       314       343       318       333       318       340       318       321
dram[3]:        330       362       320       345       359       375       375       374       322       343       316       344       325       336       324       324
dram[4]:        322       367       349       366       358       380       325       354       325       361       325       342       319       343       319       346
dram[5]:        327       363       351       353       346       369       327       344       316       329       331       328       316       344       317       323
dram[6]:        323       373       352       360       346       373       332       345       320       329       318       333       341       368       329       344
dram[7]:        322       370       332       347       331       349       354       361       321       349       330       348       331       382       336       331
dram[8]:        323       375       335       346       330       366       352       359       330       336       325       345       318       354       324       369
dram[9]:        325       367       352       360       361       371       343       351       326       349       334       348       324       346       324       335
dram[10]:        332       354       353       356       347       371       347       361       326       340       319       337       325       331       318       327
dram[11]:        326       359       351       351       351       358       326       353       323       346       316       331       324       325       321       323
Memory Partition 0: 
Cache L2_bank_000:
MSHR contents

Cache L2_bank_001:
MSHR contents

In Dram Latency Queue (total = 0): 
DRAM[0]: 16 bks, busW=2 BL=16 CL=20, tRRD=10 tCCD=4, tRCD=20 tRAS=50 tRP=20 tRC=62
n_cmd=51113 n_nop=48871 n_act=36 n_pre=20 n_ref_event=94156827171488 n_req=2186 n_rd=2186 n_rd_L2_A=0 n_write=0 n_wr_bk=0 bw_util=0.1711
n_activity=13139 dram_eff=0.6655
bk0: 182a 50525i bk1: 180a 50115i bk2: 144a 50596i bk3: 144a 50505i bk4: 128a 50640i bk5: 128a 50383i bk6: 128a 50672i bk7: 128a 50362i bk8: 128a 50695i bk9: 128a 50394i bk10: 128a 50688i bk11: 128a 50574i bk12: 128a 50743i bk13: 128a 50581i bk14: 128a 50702i bk15: 128a 50561i 

------------------------------------------------------------------------

Row_Buffer_Locality = 0.990851
Row_Buffer_Locality_read = 0.990851
Row_Buffer_Locality_write = -nan
Bank_Level_Parallism = 1.498329
Bank_Level_Parallism_Col = 0.672615
Bank_Level_Parallism_Ready = 1.412168
write_to_read_ratio_blp_rw_average = 0.000000
GrpLevelPara = 0.000000 

BW Util details:
bwutil = 0.171072 
total_CMD = 51113 
util_bw = 8744 
Wasted_Col = 244 
Wasted_Row = 151 
Idle = 41974 

BW Util Bottlenecks: 
RCDc_limit = 278 
RCDWRc_limit = 0 
WTRc_limit = 0 
RTWc_limit = 0 
CCDLc_limit = 0 
rwq = 0 
CCDLc_limit_alone = 0 
WTRc_limit_alone = 0 
RTWc_limit_alone = 0 

Commands details: 
total_CMD = 51113 
n_nop = 48871 
Read = 2186 
Write = 0 
L2_Alloc = 0 
L2_WB = 0 
n_act = 36 
n_pre = 20 
n_ref = 94156827171488 
n_req = 2186 
total_req = 2186 

Dual Bus Interface Util: 
issued_total_row = 56 
issued_total_col = 2186 
Row_Bus_Util =  0.001096 
CoL_Bus_Util = 0.042768 
Either_Row_CoL_Bus_Util = 0.043864 
Issued_on_Two_Bus_Simul_Util = 0.000000 
issued_two_Eff = 0.000000 
queue_avg = 0.372880 


dram_util_bins: 0 0 0 0 0 0 0 0 0 0
dram_eff_bins: 0 0 0 0 0 0 0 0 0 0
mrqq: max=17 avg=0.37288
Memory Partition 1: 
Cache L2_bank_002:
MSHR contents

Cache L2_bank_003:
MSHR contents

In Dram Latency Queue (total = 0): 
DRAM[1]: 16 bks, busW=2 BL=16 CL=20, tRRD=10 tCCD=4, tRCD=20 tRAS=50 tRP=20 tRC=62
n_cmd=51113 n_nop=48873 n_act=36 n_pre=20 n_ref_event=177536 n_req=2184 n_rd=2184 n_rd_L2_A=0 n_write=0 n_wr_bk=0 bw_util=0.1709
n_activity=13329 dram_eff=0.6554
bk0: 180a 50533i bk1: 180a 50170i bk2: 144a 50604i bk3: 144a 50440i bk4: 128a 50575i bk5: 128a 50293i bk6: 128a 50634i bk7: 128a 50475i bk8: 128a 50674i bk9: 128a 50563i bk10: 128a 50727i bk11: 128a 50565i bk12: 128a 50703i bk13: 128a 50563i bk14: 128a 50654i bk15: 128a 50588i 

------------------------------------------------------------------------

Row_Buffer_Locality = 0.990842
Row_Buffer_Locality_read = 0.990842
Row_Buffer_Locality_write = -nan
Bank_Level_Parallism = 1.468135
Bank_Level_Parallism_Col = 1.447305
Bank_Level_Parallism_Ready = 1.404207
write_to_read_ratio_blp_rw_average = 0.000000
GrpLevelPara = 1.444474 

BW Util details:
bwutil = 0.170915 
total_CMD = 51113 
util_bw = 8736 
Wasted_Col = 361 
Wasted_Row = 155 
Idle = 41861 

BW Util Bottlenecks: 
RCDc_limit = 440 
RCDWRc_limit = 0 
WTRc_limit = 0 
RTWc_limit = 0 
CCDLc_limit = 0 
rwq = 0 
CCDLc_limit_alone = 0 
WTRc_limit_alone = 0 
RTWc_limit_alone = 0 

Commands details: 
total_CMD = 51113 
n_nop = 48873 
Read = 2184 
Write = 0 
L2_Alloc = 0 
L2_WB = 0 
n_act = 36 
n_pre = 20 
n_ref = 177536 
n_req = 2184 
total_req = 2184 

Dual Bus Interface Util: 
issued_total_row = 56 
issued_total_col = 2184 
Row_Bus_Util =  0.001096 
CoL_Bus_Util = 0.042729 
Either_Row_CoL_Bus_Util = 0.043824 
Issued_on_Two_Bus_Simul_Util = 0.000000 
issued_two_Eff = 0.000000 
queue_avg = 0.330073 


dram_util_bins: 0 0 0 0 0 0 0 0 0 0
dram_eff_bins: 0 0 0 0 0 0 0 0 0 0
mrqq: max=26 avg=0.330073
Memory Partition 2: 
Cache L2_bank_004:
MSHR contents

Cache L2_bank_005:
MSHR contents

In Dram Latency Queue (total = 0): 
DRAM[2]: 16 bks, busW=2 BL=16 CL=20, tRRD=10 tCCD=4, tRCD=20 tRAS=50 tRP=20 tRC=62
n_cmd=51113 n_nop=48865 n_act=36 n_pre=20 n_ref_event=0 n_req=2192 n_rd=2192 n_rd_L2_A=0 n_write=0 n_wr_bk=0 bw_util=0.1715
n_activity=13138 dram_eff=0.6674
bk0: 180a 50494i bk1: 180a 50166i bk2: 148a 50525i bk3: 148a 50366i bk4: 128a 50550i bk5: 128a 50161i bk6: 128a 50499i bk7: 128a 50154i bk8: 128a 50738i bk9: 128a 50586i bk10: 128a 50719i bk11: 128a 50558i bk12: 128a 50699i bk13: 128a 50569i bk14: 128a 50773i bk15: 128a 50671i 

------------------------------------------------------------------------

Row_Buffer_Locality = 0.990876
Row_Buffer_Locality_read = 0.990876
Row_Buffer_Locality_write = -nan
Bank_Level_Parallism = 1.513088
Bank_Level_Parallism_Col = 1.495819
Bank_Level_Parallism_Ready = 1.446876
write_to_read_ratio_blp_rw_average = 0.000000
GrpLevelPara = 1.490113 

BW Util details:
bwutil = 0.171541 
total_CMD = 51113 
util_bw = 8768 
Wasted_Col = 327 
Wasted_Row = 154 
Idle = 41864 

BW Util Bottlenecks: 
RCDc_limit = 377 
RCDWRc_limit = 0 
WTRc_limit = 0 
RTWc_limit = 0 
CCDLc_limit = 0 
rwq = 0 
CCDLc_limit_alone = 0 
WTRc_limit_alone = 0 
RTWc_limit_alone = 0 

Commands details: 
total_CMD = 51113 
n_nop = 48865 
Read = 2192 
Write = 0 
L2_Alloc = 0 
L2_WB = 0 
n_act = 36 
n_pre = 20 
n_ref = 0 
n_req = 2192 
total_req = 2192 

Dual Bus Interface Util: 
issued_total_row = 56 
issued_total_col = 2192 
Row_Bus_Util =  0.001096 
CoL_Bus_Util = 0.042885 
Either_Row_CoL_Bus_Util = 0.043981 
Issued_on_Two_Bus_Simul_Util = 0.000000 
issued_two_Eff = 0.000000 
queue_avg = 0.535343 


dram_util_bins: 0 0 0 0 0 0 0 0 0 0
dram_eff_bins: 0 0 0 0 0 0 0 0 0 0
mrqq: max=27 avg=0.535343
Memory Partition 3: 
Cache L2_bank_006:
MSHR contents

Cache L2_bank_007:
MSHR contents

In Dram Latency Queue (total = 0): 
DRAM[3]: 16 bks, busW=2 BL=16 CL=20, tRRD=10 tCCD=4, tRCD=20 tRAS=50 tRP=20 tRC=62
n_cmd=51113 n_nop=48865 n_act=36 n_pre=20 n_ref_event=0 n_req=2192 n_rd=2192 n_rd_L2_A=0 n_write=0 n_wr_bk=0 bw_util=0.1715
n_activity=13059 dram_eff=0.6714
bk0: 180a 50579i bk1: 180a 50184i bk2: 148a 50611i bk3: 148a 50362i bk4: 128a 50453i bk5: 128a 50143i bk6: 128a 50403i bk7: 128a 50142i bk8: 128a 50659i bk9: 128a 50412i bk10: 128a 50718i bk11: 128a 50556i bk12: 128a 50676i bk13: 128a 50564i bk14: 128a 50702i bk15: 128a 50616i 

------------------------------------------------------------------------

Row_Buffer_Locality = 0.990876
Row_Buffer_Locality_read = 0.990876
Row_Buffer_Locality_write = -nan
Bank_Level_Parallism = 1.555541
Bank_Level_Parallism_Col = 0.984772
Bank_Level_Parallism_Ready = 1.484268
write_to_read_ratio_blp_rw_average = 0.000000
GrpLevelPara = 0.000000 

BW Util details:
bwutil = 0.171541 
total_CMD = 51113 
util_bw = 8768 
Wasted_Col = 324 
Wasted_Row = 198 
Idle = 41823 

BW Util Bottlenecks: 
RCDc_limit = 381 
RCDWRc_limit = 0 
WTRc_limit = 0 
RTWc_limit = 0 
CCDLc_limit = 0 
rwq = 0 
CCDLc_limit_alone = 0 
WTRc_limit_alone = 0 
RTWc_limit_alone = 0 

Commands details: 
total_CMD = 51113 
n_nop = 48865 
Read = 2192 
Write = 0 
L2_Alloc = 0 
L2_WB = 0 
n_act = 36 
n_pre = 20 
n_ref = 0 
n_req = 2192 
total_req = 2192 

Dual Bus Interface Util: 
issued_total_row = 56 
issued_total_col = 2192 
Row_Bus_Util =  0.001096 
CoL_Bus_Util = 0.042885 
Either_Row_CoL_Bus_Util = 0.043981 
Issued_on_Two_Bus_Simul_Util = 0.000000 
issued_two_Eff = 0.000000 
queue_avg = 0.605912 


dram_util_bins: 0 0 0 0 0 0 0 0 0 0
dram_eff_bins: 0 0 0 0 0 0 0 0 0 0
mrqq: max=28 avg=0.605912
Memory Partition 4: 
Cache L2_bank_008:
MSHR contents

Cache L2_bank_009:
MSHR contents

In Dram Latency Queue (total = 0): 
DRAM[4]: 16 bks, busW=2 BL=16 CL=20, tRRD=10 tCCD=4, tRCD=20 tRAS=50 tRP=20 tRC=62
n_cmd=51113 n_nop=48865 n_act=36 n_pre=20 n_ref_event=0 n_req=2192 n_rd=2192 n_rd_L2_A=0 n_write=0 n_wr_bk=0 bw_util=0.1715
n_activity=12811 dram_eff=0.6844
bk0: 180a 50512i bk1: 180a 50208i bk2: 148a 50640i bk3: 148a 50333i bk4: 128a 50537i bk5: 128a 50196i bk6: 128a 50662i bk7: 128a 50361i bk8: 128a 50669i bk9: 128a 50337i bk10: 128a 50716i bk11: 128a 50501i bk12: 128a 50668i bk13: 128a 50415i bk14: 128a 50677i bk15: 128a 50421i 

------------------------------------------------------------------------

Row_Buffer_Locality = 0.990876
Row_Buffer_Locality_read = 0.990876
Row_Buffer_Locality_write = -nan
Bank_Level_Parallism = 1.533426
Bank_Level_Parallism_Col = 1.517183
Bank_Level_Parallism_Ready = 1.475387
write_to_read_ratio_blp_rw_average = 0.000000
GrpLevelPara = 1.514970 

BW Util details:
bwutil = 0.171541 
total_CMD = 51113 
util_bw = 8768 
Wasted_Col = 303 
Wasted_Row = 181 
Idle = 41861 

BW Util Bottlenecks: 
RCDc_limit = 371 
RCDWRc_limit = 0 
WTRc_limit = 0 
RTWc_limit = 0 
CCDLc_limit = 0 
rwq = 0 
CCDLc_limit_alone = 0 
WTRc_limit_alone = 0 
RTWc_limit_alone = 0 

Commands details: 
total_CMD = 51113 
n_nop = 48865 
Read = 2192 
Write = 0 
L2_Alloc = 0 
L2_WB = 0 
n_act = 36 
n_pre = 20 
n_ref = 0 
n_req = 2192 
total_req = 2192 

Dual Bus Interface Util: 
issued_total_row = 56 
issued_total_col = 2192 
Row_Bus_Util =  0.001096 
CoL_Bus_Util = 0.042885 
Either_Row_CoL_Bus_Util = 0.043981 
Issued_on_Two_Bus_Simul_Util = 0.000000 
issued_two_Eff = 0.000000 
queue_avg = 0.596091 


dram_util_bins: 0 0 0 0 0 0 0 0 0 0
dram_eff_bins: 0 0 0 0 0 0 0 0 0 0
mrqq: max=24 avg=0.596091
Memory Partition 5: 
Cache L2_bank_010:
MSHR contents

Cache L2_bank_011:
MSHR contents

In Dram Latency Queue (total = 0): 
DRAM[5]: 16 bks, busW=2 BL=16 CL=20, tRRD=10 tCCD=4, tRCD=20 tRAS=50 tRP=20 tRC=62
n_cmd=51113 n_nop=48865 n_act=36 n_pre=20 n_ref_event=0 n_req=2192 n_rd=2192 n_rd_L2_A=0 n_write=0 n_wr_bk=0 bw_util=0.1715
n_activity=12795 dram_eff=0.6853
bk0: 180a 50514i bk1: 180a 50073i bk2: 148a 50627i bk3: 148a 50514i bk4: 128a 50590i bk5: 128a 50280i bk6: 128a 50666i bk7: 128a 50297i bk8: 128a 50706i bk9: 128a 50498i bk10: 128a 50625i bk11: 128a 50471i bk12: 128a 50678i bk13: 128a 50312i bk14: 128a 50724i bk15: 128a 50480i 

------------------------------------------------------------------------

Row_Buffer_Locality = 0.990876
Row_Buffer_Locality_read = 0.990876
Row_Buffer_Locality_write = -nan
Bank_Level_Parallism = 1.505688
Bank_Level_Parallism_Col = 1.493529
Bank_Level_Parallism_Ready = 1.454421
write_to_read_ratio_blp_rw_average = 0.000000
GrpLevelPara = 1.488430 

BW Util details:
bwutil = 0.171541 
total_CMD = 51113 
util_bw = 8768 
Wasted_Col = 322 
Wasted_Row = 210 
Idle = 41813 

BW Util Bottlenecks: 
RCDc_limit = 392 
RCDWRc_limit = 0 
WTRc_limit = 0 
RTWc_limit = 0 
CCDLc_limit = 0 
rwq = 0 
CCDLc_limit_alone = 0 
WTRc_limit_alone = 0 
RTWc_limit_alone = 0 

Commands details: 
total_CMD = 51113 
n_nop = 48865 
Read = 2192 
Write = 0 
L2_Alloc = 0 
L2_WB = 0 
n_act = 36 
n_pre = 20 
n_ref = 0 
n_req = 2192 
total_req = 2192 

Dual Bus Interface Util: 
issued_total_row = 56 
issued_total_col = 2192 
Row_Bus_Util =  0.001096 
CoL_Bus_Util = 0.042885 
Either_Row_CoL_Bus_Util = 0.043981 
Issued_on_Two_Bus_Simul_Util = 0.000000 
issued_two_Eff = 0.000000 
queue_avg = 0.449103 


dram_util_bins: 0 0 0 0 0 0 0 0 0 0
dram_eff_bins: 0 0 0 0 0 0 0 0 0 0
mrqq: max=24 avg=0.449103
Memory Partition 6: 
Cache L2_bank_012:
MSHR contents

Cache L2_bank_013:
MSHR contents

In Dram Latency Queue (total = 0): 
DRAM[6]: 16 bks, busW=2 BL=16 CL=20, tRRD=10 tCCD=4, tRCD=20 tRAS=50 tRP=20 tRC=62
n_cmd=51113 n_nop=48866 n_act=36 n_pre=20 n_ref_event=0 n_req=2192 n_rd=2192 n_rd_L2_A=0 n_write=0 n_wr_bk=0 bw_util=0.1715
n_activity=12941 dram_eff=0.6775
bk0: 180a 50575i bk1: 180a 50230i bk2: 148a 50642i bk3: 148a 50345i bk4: 128a 50600i bk5: 128a 50312i bk6: 128a 50717i bk7: 128a 50445i bk8: 128a 50725i bk9: 128a 50457i bk10: 128a 50680i bk11: 128a 50414i bk12: 128a 50538i bk13: 128a 50322i bk14: 128a 50609i bk15: 128a 50523i 

------------------------------------------------------------------------

Row_Buffer_Locality = 0.990876
Row_Buffer_Locality_read = 0.990876
Row_Buffer_Locality_write = -nan
Bank_Level_Parallism = 1.509506
Bank_Level_Parallism_Col = 1.496182
Bank_Level_Parallism_Ready = 1.464872
write_to_read_ratio_blp_rw_average = 0.000000
GrpLevelPara = 1.487888 

BW Util details:
bwutil = 0.171541 
total_CMD = 51113 
util_bw = 8768 
Wasted_Col = 359 
Wasted_Row = 192 
Idle = 41794 

BW Util Bottlenecks: 
RCDc_limit = 423 
RCDWRc_limit = 0 
WTRc_limit = 0 
RTWc_limit = 0 
CCDLc_limit = 0 
rwq = 0 
CCDLc_limit_alone = 0 
WTRc_limit_alone = 0 
RTWc_limit_alone = 0 

Commands details: 
total_CMD = 51113 
n_nop = 48866 
Read = 2192 
Write = 0 
L2_Alloc = 0 
L2_WB = 0 
n_act = 36 
n_pre = 20 
n_ref = 0 
n_req = 2192 
total_req = 2192 

Dual Bus Interface Util: 
issued_total_row = 56 
issued_total_col = 2192 
Row_Bus_Util =  0.001096 
CoL_Bus_Util = 0.042885 
Either_Row_CoL_Bus_Util = 0.043961 
Issued_on_Two_Bus_Simul_Util = 0.000020 
issued_two_Eff = 0.000445 
queue_avg = 0.462172 


dram_util_bins: 0 0 0 0 0 0 0 0 0 0
dram_eff_bins: 0 0 0 0 0 0 0 0 0 0
mrqq: max=30 avg=0.462172
Memory Partition 7: 
Cache L2_bank_014:
MSHR contents

Cache L2_bank_015:
MSHR contents

In Dram Latency Queue (total = 0): 
DRAM[7]: 16 bks, busW=2 BL=16 CL=20, tRRD=10 tCCD=4, tRCD=20 tRAS=50 tRP=20 tRC=62
n_cmd=51113 n_nop=48874 n_act=36 n_pre=20 n_ref_event=0 n_req=2184 n_rd=2184 n_rd_L2_A=0 n_write=0 n_wr_bk=0 bw_util=0.1709
n_activity=13112 dram_eff=0.6663
bk0: 180a 50571i bk1: 180a 50324i bk2: 144a 50665i bk3: 144a 50539i bk4: 128a 50625i bk5: 128a 50393i bk6: 128a 50620i bk7: 128a 50414i bk8: 128a 50720i bk9: 128a 50502i bk10: 128a 50636i bk11: 128a 50407i bk12: 128a 50653i bk13: 128a 50202i bk14: 128a 50654i bk15: 128a 50574i 

------------------------------------------------------------------------

Row_Buffer_Locality = 0.990842
Row_Buffer_Locality_read = 0.990842
Row_Buffer_Locality_write = -nan
Bank_Level_Parallism = 1.497842
Bank_Level_Parallism_Col = 1.476031
Bank_Level_Parallism_Ready = 1.424256
write_to_read_ratio_blp_rw_average = 0.000000
GrpLevelPara = 1.470122 

BW Util details:
bwutil = 0.170915 
total_CMD = 51113 
util_bw = 8736 
Wasted_Col = 337 
Wasted_Row = 170 
Idle = 41870 

BW Util Bottlenecks: 
RCDc_limit = 411 
RCDWRc_limit = 0 
WTRc_limit = 0 
RTWc_limit = 0 
CCDLc_limit = 0 
rwq = 0 
CCDLc_limit_alone = 0 
WTRc_limit_alone = 0 
RTWc_limit_alone = 0 

Commands details: 
total_CMD = 51113 
n_nop = 48874 
Read = 2184 
Write = 0 
L2_Alloc = 0 
L2_WB = 0 
n_act = 36 
n_pre = 20 
n_ref = 0 
n_req = 2184 
total_req = 2184 

Dual Bus Interface Util: 
issued_total_row = 56 
issued_total_col = 2184 
Row_Bus_Util =  0.001096 
CoL_Bus_Util = 0.042729 
Either_Row_CoL_Bus_Util = 0.043805 
Issued_on_Two_Bus_Simul_Util = 0.000020 
issued_two_Eff = 0.000447 
queue_avg = 0.519613 


dram_util_bins: 0 0 0 0 0 0 0 0 0 0
dram_eff_bins: 0 0 0 0 0 0 0 0 0 0
mrqq: max=23 avg=0.519613
Memory Partition 8: 
Cache L2_bank_016:
MSHR contents

Cache L2_bank_017:
MSHR contents

In Dram Latency Queue (total = 0): 
DRAM[8]: 16 bks, busW=2 BL=16 CL=20, tRRD=10 tCCD=4, tRCD=20 tRAS=50 tRP=20 tRC=62
n_cmd=51113 n_nop=48873 n_act=36 n_pre=20 n_ref_event=0 n_req=2184 n_rd=2184 n_rd_L2_A=0 n_write=0 n_wr_bk=0 bw_util=0.1709
n_activity=13113 dram_eff=0.6662
bk0: 180a 50540i bk1: 180a 50231i bk2: 144a 50641i bk3: 144a 50509i bk4: 128a 50657i bk5: 128a 50349i bk6: 128a 50606i bk7: 128a 50335i bk8: 128a 50588i bk9: 128a 50406i bk10: 128a 50707i bk11: 128a 50537i bk12: 128a 50713i bk13: 128a 50423i bk14: 128a 50678i bk15: 128a 50355i 

------------------------------------------------------------------------

Row_Buffer_Locality = 0.990842
Row_Buffer_Locality_read = 0.990842
Row_Buffer_Locality_write = -nan
Bank_Level_Parallism = 1.497819
Bank_Level_Parallism_Col = 1.478295
Bank_Level_Parallism_Ready = 1.436813
write_to_read_ratio_blp_rw_average = 0.000000
GrpLevelPara = 1.473281 

BW Util details:
bwutil = 0.170915 
total_CMD = 51113 
util_bw = 8736 
Wasted_Col = 352 
Wasted_Row = 157 
Idle = 41868 

BW Util Bottlenecks: 
RCDc_limit = 405 
RCDWRc_limit = 0 
WTRc_limit = 0 
RTWc_limit = 0 
CCDLc_limit = 0 
rwq = 0 
CCDLc_limit_alone = 0 
WTRc_limit_alone = 0 
RTWc_limit_alone = 0 

Commands details: 
total_CMD = 51113 
n_nop = 48873 
Read = 2184 
Write = 0 
L2_Alloc = 0 
L2_WB = 0 
n_act = 36 
n_pre = 20 
n_ref = 0 
n_req = 2184 
total_req = 2184 

Dual Bus Interface Util: 
issued_total_row = 56 
issued_total_col = 2184 
Row_Bus_Util =  0.001096 
CoL_Bus_Util = 0.042729 
Either_Row_CoL_Bus_Util = 0.043824 
Issued_on_Two_Bus_Simul_Util = 0.000000 
issued_two_Eff = 0.000000 
queue_avg = 0.528144 


dram_util_bins: 0 0 0 0 0 0 0 0 0 0
dram_eff_bins: 0 0 0 0 0 0 0 0 0 0
mrqq: max=30 avg=0.528144
Memory Partition 9: 
Cache L2_bank_018:
MSHR contents

Cache L2_bank_019:
MSHR contents

In Dram Latency Queue (total = 0): 
DRAM[9]: 16 bks, busW=2 BL=16 CL=20, tRRD=10 tCCD=4, tRCD=20 tRAS=50 tRP=20 tRC=62
n_cmd=51113 n_nop=48873 n_act=36 n_pre=20 n_ref_event=0 n_req=2184 n_rd=2184 n_rd_L2_A=0 n_write=0 n_wr_bk=0 bw_util=0.1709
n_activity=13266 dram_eff=0.6585
bk0: 180a 50547i bk1: 180a 50162i bk2: 144a 50519i bk3: 144a 50402i bk4: 128a 50575i bk5: 128a 50256i bk6: 128a 50595i bk7: 128a 50360i bk8: 128a 50703i bk9: 128a 50421i bk10: 128a 50713i bk11: 128a 50527i bk12: 128a 50709i bk13: 128a 50530i bk14: 128a 50724i bk15: 128a 50458i 

------------------------------------------------------------------------

Row_Buffer_Locality = 0.990842
Row_Buffer_Locality_read = 0.990842
Row_Buffer_Locality_write = -nan
Bank_Level_Parallism = 1.509638
Bank_Level_Parallism_Col = 1.498739
Bank_Level_Parallism_Ready = 1.454212
write_to_read_ratio_blp_rw_average = 0.000000
GrpLevelPara = 1.496614 

BW Util details:
bwutil = 0.170915 
total_CMD = 51113 
util_bw = 8736 
Wasted_Col = 348 
Wasted_Row = 207 
Idle = 41822 

BW Util Bottlenecks: 
RCDc_limit = 408 
RCDWRc_limit = 0 
WTRc_limit = 0 
RTWc_limit = 0 
CCDLc_limit = 0 
rwq = 0 
CCDLc_limit_alone = 0 
WTRc_limit_alone = 0 
RTWc_limit_alone = 0 

Commands details: 
total_CMD = 51113 
n_nop = 48873 
Read = 2184 
Write = 0 
L2_Alloc = 0 
L2_WB = 0 
n_act = 36 
n_pre = 20 
n_ref = 0 
n_req = 2184 
total_req = 2184 

Dual Bus Interface Util: 
issued_total_row = 56 
issued_total_col = 2184 
Row_Bus_Util =  0.001096 
CoL_Bus_Util = 0.042729 
Either_Row_CoL_Bus_Util = 0.043824 
Issued_on_Two_Bus_Simul_Util = 0.000000 
issued_two_Eff = 0.000000 
queue_avg = 0.530667 


dram_util_bins: 0 0 0 0 0 0 0 0 0 0
dram_eff_bins: 0 0 0 0 0 0 0 0 0 0
mrqq: max=25 avg=0.530667
Memory Partition 10: 
Cache L2_bank_020:
MSHR contents

Cache L2_bank_021:
MSHR contents

In Dram Latency Queue (total = 0): 
DRAM[10]: 16 bks, busW=2 BL=16 CL=20, tRRD=10 tCCD=4, tRCD=20 tRAS=50 tRP=20 tRC=62
n_cmd=51113 n_nop=48873 n_act=36 n_pre=20 n_ref_event=0 n_req=2184 n_rd=2184 n_rd_L2_A=0 n_write=0 n_wr_bk=0 bw_util=0.1709
n_activity=12938 dram_eff=0.6752
bk0: 180a 50485i bk1: 180a 50063i bk2: 144a 50538i bk3: 144a 50444i bk4: 128a 50500i bk5: 128a 50332i bk6: 128a 50522i bk7: 128a 50190i bk8: 128a 50748i bk9: 128a 50506i bk10: 128a 50716i bk11: 128a 50599i bk12: 128a 50744i bk13: 128a 50565i bk14: 128a 50760i bk15: 128a 50561i 

------------------------------------------------------------------------

Row_Buffer_Locality = 0.990842
Row_Buffer_Locality_read = 0.990842
Row_Buffer_Locality_write = -nan
Bank_Level_Parallism = 1.514837
Bank_Level_Parallism_Col = 1.490591
Bank_Level_Parallism_Ready = 1.445309
write_to_read_ratio_blp_rw_average = 0.000000
GrpLevelPara = 1.484319 

BW Util details:
bwutil = 0.170915 
total_CMD = 51113 
util_bw = 8736 
Wasted_Col = 333 
Wasted_Row = 179 
Idle = 41865 

BW Util Bottlenecks: 
RCDc_limit = 418 
RCDWRc_limit = 0 
WTRc_limit = 0 
RTWc_limit = 0 
CCDLc_limit = 0 
rwq = 0 
CCDLc_limit_alone = 0 
WTRc_limit_alone = 0 
RTWc_limit_alone = 0 

Commands details: 
total_CMD = 51113 
n_nop = 48873 
Read = 2184 
Write = 0 
L2_Alloc = 0 
L2_WB = 0 
n_act = 36 
n_pre = 20 
n_ref = 0 
n_req = 2184 
total_req = 2184 

Dual Bus Interface Util: 
issued_total_row = 56 
issued_total_col = 2184 
Row_Bus_Util =  0.001096 
CoL_Bus_Util = 0.042729 
Either_Row_CoL_Bus_Util = 0.043824 
Issued_on_Two_Bus_Simul_Util = 0.000000 
issued_two_Eff = 0.000000 
queue_avg = 0.344276 


dram_util_bins: 0 0 0 0 0 0 0 0 0 0
dram_eff_bins: 0 0 0 0 0 0 0 0 0 0
mrqq: max=16 avg=0.344276
Memory Partition 11: 
Cache L2_bank_022:
MSHR contents

Cache L2_bank_023:
MSHR contents

In Dram Latency Queue (total = 0): 
DRAM[11]: 16 bks, busW=2 BL=16 CL=20, tRRD=10 tCCD=4, tRCD=20 tRAS=50 tRP=20 tRC=62
n_cmd=51113 n_nop=48873 n_act=36 n_pre=20 n_ref_event=0 n_req=2184 n_rd=2184 n_rd_L2_A=0 n_write=0 n_wr_bk=0 bw_util=0.1709
n_activity=13261 dram_eff=0.6588
bk0: 180a 50493i bk1: 180a 50113i bk2: 144a 50632i bk3: 144a 50567i bk4: 128a 50650i bk5: 128a 50353i bk6: 128a 50616i bk7: 128a 50369i bk8: 128a 50759i bk9: 128a 50500i bk10: 128a 50712i bk11: 128a 50548i bk12: 128a 50642i bk13: 128a 50567i bk14: 128a 50701i bk15: 128a 50579i 

------------------------------------------------------------------------

Row_Buffer_Locality = 0.990842
Row_Buffer_Locality_read = 0.990842
Row_Buffer_Locality_write = -nan
Bank_Level_Parallism = 1.440702
Bank_Level_Parallism_Col = 1.424977
Bank_Level_Parallism_Ready = 1.396062
write_to_read_ratio_blp_rw_average = 0.000000
GrpLevelPara = 1.423113 

BW Util details:
[...]
Row_Buffer_Locality_write = -nan
Bank_Level_Parallism = 1.558680
Bank_Level_Parallism_Col = 1.530052
Bank_Level_Parallism_Ready = 1.480184
write_to_read_ratio_blp_rw_average = 0.000000
GrpLevelPara = 1.523199 

BW Util details:
bwutil = 0.165339 
total_CMD = 252620 
util_bw = 41768 
Wasted_Col = 1523 
Wasted_Row = 1288 
Idle = 208041 

BW Util Bottlenecks: 
RCDc_limit = 1803 
RCDWRc_limit = 0 
WTRc_limit = 0 
RTWc_limit = 0 
CCDLc_limit = 0 
rwq = 0 
CCDLc_limit_alone = 0 
WTRc_limit_alone = 0 
RTWc_limit_alone = 0 

Commands details: 
total_CMD = 252620 
n_nop = 241851 
Read = 10442 
Write = 0 
L2_Alloc = 0 
L2_WB = 0 
n_act = 172 
n_pre = 156 
n_ref = 0 
n_req = 10442 
total_req = 10442 

Dual Bus Interface Util: 
issued_total_row = 328 
issued_total_col = 10442 
Row_Bus_Util =  0.001298 
CoL_Bus_Util = 0.041335 
Either_Row_CoL_Bus_Util = 0.042629 
Issued_on_Two_Bus_Simul_Util = 0.000004 
issued_two_Eff = 0.000093 
queue_avg = 0.503123 


dram_util_bins: 0 0 0 0 0 0 0 0 0 0
dram_eff_bins: 0 0 0 0 0 0 0 0 0 0
mrqq: max=34 avg=0.503123
Memory Partition 6: 
Cache L2_bank_012:
MSHR contents

Cache L2_bank_013:
MSHR contents

In Dram Latency Queue (total = 0): 
DRAM[6]: 16 bks, busW=2 BL=16 CL=20, tRRD=10 tCCD=4, tRCD=20 tRAS=50 tRP=20 tRC=62
n_cmd=252620 n_nop=241850 n_act=172 n_pre=156 n_ref_event=0 n_req=10443 n_rd=10443 n_rd_L2_A=0 n_write=0 n_wr_bk=0 bw_util=0.1654
n_activity=61681 dram_eff=0.6772
bk0: 695a 250215i bk1: 695a 249009i bk2: 675a 250121i bk3: 674a 249022i bk4: 652a 250202i bk5: 652a 248937i bk6: 640a 250229i bk7: 640a 248783i bk8: 640a 250141i bk9: 640a 248720i bk10: 640a 250007i bk11: 640a 248725i bk12: 640a 250052i bk13: 640a 248899i bk14: 640a 250317i bk15: 640a 249190i 

------------------------------------------------------------------------

Row_Buffer_Locality = 0.985062
Row_Buffer_Locality_read = 0.985062
Row_Buffer_Locality_write = -nan
Bank_Level_Parallism = 1.573033
Bank_Level_Parallism_Col = 1.548375
Bank_Level_Parallism_Ready = 1.501245
write_to_read_ratio_blp_rw_average = 0.000000
GrpLevelPara = 1.539765 

BW Util details:
bwutil = 0.165355 
total_CMD = 252620 
util_bw = 41772 
Wasted_Col = 1505 
Wasted_Row = 1339 
Idle = 208004 

BW Util Bottlenecks: 
RCDc_limit = 1786 
RCDWRc_limit = 0 
WTRc_limit = 0 
RTWc_limit = 0 
CCDLc_limit = 0 
rwq = 0 
CCDLc_limit_alone = 0 
WTRc_limit_alone = 0 
RTWc_limit_alone = 0 

Commands details: 
total_CMD = 252620 
n_nop = 241850 
Read = 10443 
Write = 0 
L2_Alloc = 0 
L2_WB = 0 
n_act = 172 
n_pre = 156 
n_ref = 0 
n_req = 10443 
total_req = 10443 

Dual Bus Interface Util: 
issued_total_row = 328 
issued_total_col = 10443 
Row_Bus_Util =  0.001298 
CoL_Bus_Util = 0.041339 
Either_Row_CoL_Bus_Util = 0.042633 
Issued_on_Two_Bus_Simul_Util = 0.000004 
issued_two_Eff = 0.000093 
queue_avg = 0.517857 


dram_util_bins: 0 0 0 0 0 0 0 0 0 0
dram_eff_bins: 0 0 0 0 0 0 0 0 0 0
mrqq: max=30 avg=0.517857
Memory Partition 7: 
Cache L2_bank_014:
MSHR contents

Cache L2_bank_015:
MSHR contents

In Dram Latency Queue (total = 0): 
DRAM[7]: 16 bks, busW=2 BL=16 CL=20, tRRD=10 tCCD=4, tRCD=20 tRAS=50 tRP=20 tRC=62
n_cmd=252620 n_nop=241850 n_act=172 n_pre=156 n_ref_event=0 n_req=10444 n_rd=10444 n_rd_L2_A=0 n_write=0 n_wr_bk=0 bw_util=0.1654
n_activity=62427 dram_eff=0.6692
bk0: 695a 250048i bk1: 696a 248904i bk2: 674a 250048i bk3: 675a 249055i bk4: 652a 250140i bk5: 652a 248967i bk6: 640a 250196i bk7: 640a 249103i bk8: 640a 250310i bk9: 640a 249093i bk10: 640a 250234i bk11: 640a 249072i bk12: 640a 250397i bk13: 640a 249173i bk14: 640a 250238i bk15: 640a 249358i 

------------------------------------------------------------------------

Row_Buffer_Locality = 0.985063
Row_Buffer_Locality_read = 0.985063
Row_Buffer_Locality_write = -nan
Bank_Level_Parallism = 1.555882
Bank_Level_Parallism_Col = 1.519392
Bank_Level_Parallism_Ready = 1.465729
write_to_read_ratio_blp_rw_average = 0.000000
GrpLevelPara = 1.511193 

BW Util details:
bwutil = 0.165371 
total_CMD = 252620 
util_bw = 41776 
Wasted_Col = 1517 
Wasted_Row = 1218 
Idle = 208109 

BW Util Bottlenecks: 
RCDc_limit = 1882 
RCDWRc_limit = 0 
WTRc_limit = 0 
RTWc_limit = 0 
CCDLc_limit = 0 
rwq = 0 
CCDLc_limit_alone = 0 
WTRc_limit_alone = 0 
RTWc_limit_alone = 0 

Commands details: 
total_CMD = 252620 
n_nop = 241850 
Read = 10444 
Write = 0 
L2_Alloc = 0 
L2_WB = 0 
n_act = 172 
n_pre = 156 
n_ref = 0 
n_req = 10444 
total_req = 10444 

Dual Bus Interface Util: 
issued_total_row = 328 
issued_total_col = 10444 
Row_Bus_Util =  0.001298 
CoL_Bus_Util = 0.041343 
Either_Row_CoL_Bus_Util = 0.042633 
Issued_on_Two_Bus_Simul_Util = 0.000008 
issued_two_Eff = 0.000186 
queue_avg = 0.499105 


dram_util_bins: 0 0 0 0 0 0 0 0 0 0
dram_eff_bins: 0 0 0 0 0 0 0 0 0 0
mrqq: max=29 avg=0.499105
Memory Partition 8: 
Cache L2_bank_016:
MSHR contents

Cache L2_bank_017:
MSHR contents

In Dram Latency Queue (total = 0): 
DRAM[8]: 16 bks, busW=2 BL=16 CL=20, tRRD=10 tCCD=4, tRCD=20 tRAS=50 tRP=20 tRC=62
n_cmd=252620 n_nop=241850 n_act=172 n_pre=156 n_ref_event=0 n_req=10442 n_rd=10442 n_rd_L2_A=0 n_write=0 n_wr_bk=0 bw_util=0.1653
n_activity=63402 dram_eff=0.6588
bk0: 695a 250116i bk1: 695a 249015i bk2: 674a 250246i bk3: 674a 249241i bk4: 652a 250336i bk5: 652a 249118i bk6: 640a 250057i bk7: 640a 248680i bk8: 640a 250233i bk9: 640a 248840i bk10: 640a 250504i bk11: 640a 249427i bk12: 640a 250619i bk13: 640a 249581i bk14: 640a 250441i bk15: 640a 249625i 

------------------------------------------------------------------------

Row_Buffer_Locality = 0.985060
Row_Buffer_Locality_read = 0.985060
Row_Buffer_Locality_write = -nan
Bank_Level_Parallism = 1.509361
Bank_Level_Parallism_Col = 1.477650
Bank_Level_Parallism_Ready = 1.423662
write_to_read_ratio_blp_rw_average = 0.000000
GrpLevelPara = 1.472870 

BW Util details:
bwutil = 0.165339 
total_CMD = 252620 
util_bw = 41768 
Wasted_Col = 1401 
Wasted_Row = 1277 
Idle = 208174 

BW Util Bottlenecks: 
RCDc_limit = 1670 
RCDWRc_limit = 0 
WTRc_limit = 0 
RTWc_limit = 0 
CCDLc_limit = 0 
rwq = 0 
CCDLc_limit_alone = 0 
WTRc_limit_alone = 0 
RTWc_limit_alone = 0 

Commands details: 
total_CMD = 252620 
n_nop = 241850 
Read = 10442 
Write = 0 
L2_Alloc = 0 
L2_WB = 0 
n_act = 172 
n_pre = 156 
n_ref = 0 
n_req = 10442 
total_req = 10442 

Dual Bus Interface Util: 
issued_total_row = 328 
issued_total_col = 10442 
Row_Bus_Util =  0.001298 
CoL_Bus_Util = 0.041335 
Either_Row_CoL_Bus_Util = 0.042633 
Issued_on_Two_Bus_Simul_Util = 0.000000 
issued_two_Eff = 0.000000 
queue_avg = 0.447126 


dram_util_bins: 0 0 0 0 0 0 0 0 0 0
dram_eff_bins: 0 0 0 0 0 0 0 0 0 0
mrqq: max=30 avg=0.447126
Memory Partition 9: 
Cache L2_bank_018:
MSHR contents

Cache L2_bank_019:
MSHR contents

In Dram Latency Queue (total = 0): 
DRAM[9]: 16 bks, busW=2 BL=16 CL=20, tRRD=10 tCCD=4, tRCD=20 tRAS=50 tRP=20 tRC=62
n_cmd=252620 n_nop=241848 n_act=172 n_pre=156 n_ref_event=0 n_req=10444 n_rd=10444 n_rd_L2_A=0 n_write=0 n_wr_bk=0 bw_util=0.1654
n_activity=63998 dram_eff=0.6528
bk0: 696a 250244i bk1: 695a 249366i bk2: 675a 250146i bk3: 674a 249423i bk4: 652a 250229i bk5: 652a 248982i bk6: 640a 250283i bk7: 640a 249052i bk8: 640a 250433i bk9: 640a 249363i bk10: 640a 250525i bk11: 640a 249568i bk12: 640a 250462i bk13: 640a 249493i bk14: 640a 250531i bk15: 640a 249491i 

------------------------------------------------------------------------

Row_Buffer_Locality = 0.985063
Row_Buffer_Locality_read = 0.985063
Row_Buffer_Locality_write = -nan
Bank_Level_Parallism = 1.472919
Bank_Level_Parallism_Col = 1.441504
Bank_Level_Parallism_Ready = 1.392591
write_to_read_ratio_blp_rw_average = 0.000000
GrpLevelPara = 1.437692 

BW Util details:
bwutil = 0.165371 
total_CMD = 252620 
util_bw = 41776 
Wasted_Col = 1505 
Wasted_Row = 1323 
Idle = 208016 

BW Util Bottlenecks: 
RCDc_limit = 1809 
RCDWRc_limit = 0 
WTRc_limit = 0 
RTWc_limit = 0 
CCDLc_limit = 0 
rwq = 0 
CCDLc_limit_alone = 0 
WTRc_limit_alone = 0 
RTWc_limit_alone = 0 

Commands details: 
total_CMD = 252620 
n_nop = 241848 
Read = 10444 
Write = 0 
L2_Alloc = 0 
L2_WB = 0 
n_act = 172 
n_pre = 156 
n_ref = 0 
n_req = 10444 
total_req = 10444 

Dual Bus Interface Util: 
issued_total_row = 328 
issued_total_col = 10444 
Row_Bus_Util =  0.001298 
CoL_Bus_Util = 0.041343 
Either_Row_CoL_Bus_Util = 0.042641 
Issued_on_Two_Bus_Simul_Util = 0.000000 
issued_two_Eff = 0.000000 
queue_avg = 0.391220 


dram_util_bins: 0 0 0 0 0 0 0 0 0 0
dram_eff_bins: 0 0 0 0 0 0 0 0 0 0
mrqq: max=25 avg=0.39122
Memory Partition 10: 
Cache L2_bank_020:
MSHR contents

Cache L2_bank_021:
MSHR contents

In Dram Latency Queue (total = 0): 
DRAM[10]: 16 bks, busW=2 BL=16 CL=20, tRRD=10 tCCD=4, tRCD=20 tRAS=50 tRP=20 tRC=62
n_cmd=252620 n_nop=241849 n_act=172 n_pre=156 n_ref_event=0 n_req=10444 n_rd=10444 n_rd_L2_A=0 n_write=0 n_wr_bk=0 bw_util=0.1654
n_activity=63135 dram_eff=0.6617
bk0: 695a 250348i bk1: 696a 249211i bk2: 674a 250214i bk3: 675a 249533i bk4: 652a 250289i bk5: 652a 248910i bk6: 640a 250097i bk7: 640a 248569i bk8: 640a 250355i bk9: 640a 249246i bk10: 640a 250503i bk11: 640a 249358i bk12: 640a 250578i bk13: 640a 249529i bk14: 640a 250585i bk15: 640a 249763i 

------------------------------------------------------------------------

Row_Buffer_Locality = 0.985063
Row_Buffer_Locality_read = 0.985063
Row_Buffer_Locality_write = -nan
Bank_Level_Parallism = 1.478967
Bank_Level_Parallism_Col = 1.447398
Bank_Level_Parallism_Ready = 1.397415
write_to_read_ratio_blp_rw_average = 0.000000
GrpLevelPara = 1.443917 

BW Util details:
bwutil = 0.165371 
total_CMD = 252620 
util_bw = 41776 
Wasted_Col = 1495 
Wasted_Row = 1353 
Idle = 207996 

BW Util Bottlenecks: 
RCDc_limit = 1817 
RCDWRc_limit = 0 
WTRc_limit = 0 
RTWc_limit = 0 
CCDLc_limit = 0 
rwq = 0 
CCDLc_limit_alone = 0 
WTRc_limit_alone = 0 
RTWc_limit_alone = 0 

Commands details: 
total_CMD = 252620 
n_nop = 241849 
Read = 10444 
Write = 0 
L2_Alloc = 0 
L2_WB = 0 
n_act = 172 
n_pre = 156 
n_ref = 0 
n_req = 10444 
total_req = 10444 

Dual Bus Interface Util: 
issued_total_row = 328 
issued_total_col = 10444 
Row_Bus_Util =  0.001298 
CoL_Bus_Util = 0.041343 
Either_Row_CoL_Bus_Util = 0.042637 
Issued_on_Two_Bus_Simul_Util = 0.000004 
issued_two_Eff = 0.000093 
queue_avg = 0.395551 


dram_util_bins: 0 0 0 0 0 0 0 0 0 0
dram_eff_bins: 0 0 0 0 0 0 0 0 0 0
mrqq: max=23 avg=0.395551
Memory Partition 11: 
Cache L2_bank_022:
MSHR contents

Cache L2_bank_023:
MSHR contents

In Dram Latency Queue (total = 0): 
DRAM[11]: 16 bks, busW=2 BL=16 CL=20, tRRD=10 tCCD=4, tRCD=20 tRAS=50 tRP=20 tRC=62
n_cmd=252620 n_nop=241850 n_act=172 n_pre=156 n_ref_event=0 n_req=10442 n_rd=10442 n_rd_L2_A=0 n_write=0 n_wr_bk=0 bw_util=0.1653
n_activity=63063 dram_eff=0.6623
bk0: 695a 250222i bk1: 695a 249014i bk2: 674a 250319i bk3: 674a 249444i bk4: 652a 250193i bk5: 652a 248954i bk6: 640a 250067i bk7: 640a 248761i bk8: 640a 250464i bk9: 640a 249431i bk10: 640a 250454i bk11: 640a 249438i bk12: 640a 250437i bk13: 640a 249579i bk14: 640a 250569i bk15: 640a 249574i 

------------------------------------------------------------------------

Row_Buffer_Locality = 0.985060
Row_Buffer_Locality_read = 0.985060
Row_Buffer_Locality_write = -nan
Bank_Level_Parallism = 1.481976
Bank_Level_Parallism_Col = 1.453746
Bank_Level_Parallism_Ready = 1.406109
write_to_read_ratio_blp_rw_average = 0.000000
GrpLevelPara = 1.452061 

BW Util details:
bwutil = 0.165339 
total_CMD = 252620 
util_bw = 41768 
Wasted_Col = 1575 
Wasted_Row = 1364 
Idle = 207913 

BW Util Bottlenecks: 
RCDc_limit = 1909 
RCDWRc_limit = 0 
WTRc_limit = 0 
RTWc_limit = 0 
CCDLc_limit = 0 
rwq = 0 
CCDLc_limit_alone = 0 
WTRc_limit_alone = 0 
RTWc_limit_alone = 0 

Commands details: 
total_CMD = 252620 
n_nop = 241850 
Read = 10442 
Write = 0 
L2_Alloc = 0 
L2_WB = 0 
n_act = 172 
n_pre = 156 
n_ref = 0 
n_req = 10442 
total_req = 10442 

Dual Bus Interface Util: 
issued_total_row = 328 
issued_total_col = 10442 
Row_Bus_Util =  0.001298 
CoL_Bus_Util = 0.041335 
Either_Row_CoL_Bus_Util = 0.042633 
Issued_on_Two_Bus_Simul_Util = 0.000000 
issued_two_Eff = 0.000000 
queue_avg = 0.415684 


dram_util_bins: 0 0 0 0 0 0 0 0 0 0
dram_eff_bins: 0 0 0 0 0 0 0 0 0 0
mrqq: max=26 avg=0.415684

========= L2 cache stats =========
L2_cache_bank[0]: Access = 6416, Miss = 5292, Miss_rate = 0.825, Pending_hits = 448, Reservation_fails = 0
L2_cache_bank[1]: Access = 6400, Miss = 5286, Miss_rate = 0.826, Pending_hits = 454, Reservation_fails = 0
L2_cache_bank[2]: Access = 6431, Miss = 5288, Miss_rate = 0.822, Pending_hits = 478, Reservation_fails = 0
L2_cache_bank[3]: Access = 6423, Miss = 5288, Miss_rate = 0.823, Pending_hits = 469, Reservation_fails = 0
L2_cache_bank[4]: Access = 6407, Miss = 5290, Miss_rate = 0.826, Pending_hits = 429, Reservation_fails = 0
L2_cache_bank[5]: Access = 6403, Miss = 5288, Miss_rate = 0.826, Pending_hits = 441, Reservation_fails = 0
L2_cache_bank[6]: Access = 6432, Miss = 5288, Miss_rate = 0.822, Pending_hits = 489, Reservation_fails = 0
L2_cache_bank[7]: Access = 6416, Miss = 5286, Miss_rate = 0.824, Pending_hits = 471, Reservation_fails = 0
L2_cache_bank[8]: Access = 6411, Miss = 5286, Miss_rate = 0.825, Pending_hits = 461, Reservation_fails = 0
L2_cache_bank[9]: Access = 6429, Miss = 5288, Miss_rate = 0.823, Pending_hits = 490, Reservation_fails = 0
L2_cache_bank[10]: Access = 6427, Miss = 5286, Miss_rate = 0.822, Pending_hits = 459, Reservation_fails = 0
L2_cache_bank[11]: Access = 6404, Miss = 5286, Miss_rate = 0.825, Pending_hits = 430, Reservation_fails = 0
L2_cache_bank[12]: Access = 6418, Miss = 5288, Miss_rate = 0.824, Pending_hits = 452, Reservation_fails = 0
L2_cache_bank[13]: Access = 6434, Miss = 5286, Miss_rate = 0.822, Pending_hits = 466, Reservation_fails = 0
L2_cache_bank[14]: Access = 6407, Miss = 5286, Miss_rate = 0.825, Pending_hits = 433, Reservation_fails = 0
L2_cache_bank[15]: Access = 6416, Miss = 5290, Miss_rate = 0.825, Pending_hits = 451, Reservation_fails = 0
L2_cache_bank[16]: Access = 6432, Miss = 5286, Miss_rate = 0.822, Pending_hits = 480, Reservation_fails = 0
L2_cache_bank[17]: Access = 6419, Miss = 5286, Miss_rate = 0.823, Pending_hits = 465, Reservation_fails = 0
L2_cache_bank[18]: Access = 6404, Miss = 5290, Miss_rate = 0.826, Pending_hits = 438, Reservation_fails = 0
L2_cache_bank[19]: Access = 6420, Miss = 5286, Miss_rate = 0.823, Pending_hits = 463, Reservation_fails = 0
L2_cache_bank[20]: Access = 6425, Miss = 5286, Miss_rate = 0.823, Pending_hits = 491, Reservation_fails = 0
L2_cache_bank[21]: Access = 6404, Miss = 5290, Miss_rate = 0.826, Pending_hits = 451, Reservation_fails = 0
L2_cache_bank[22]: Access = 6410, Miss = 5286, Miss_rate = 0.825, Pending_hits = 445, Reservation_fails = 0
L2_cache_bank[23]: Access = 6421, Miss = 5286, Miss_rate = 0.823, Pending_hits = 454, Reservation_fails = 0
L2_total_cache_accesses = 154009
L2_total_cache_misses = 126898
L2_total_cache_miss_rate = 0.8240
L2_total_cache_pending_hits = 11008
L2_total_cache_reservation_fails = 0
L2_total_cache_breakdown:
	L2_cache_stats_breakdown[GLOBAL_ACC_R][HIT] = 9842
	L2_cache_stats_breakdown[GLOBAL_ACC_R][HIT_RESERVED] = 11008
	L2_cache_stats_breakdown[GLOBAL_ACC_R][MISS] = 31251
	L2_cache_stats_breakdown[GLOBAL_ACC_R][RESERVATION_FAIL] = 0
	L2_cache_stats_breakdown[GLOBAL_ACC_R][SECTOR_MISS] = 94073
	L2_cache_stats_breakdown[LOCAL_ACC_R][HIT] = 0
	L2_cache_stats_breakdown[LOCAL_ACC_R][HIT_RESERVED] = 0
	L2_cache_stats_breakdown[LOCAL_ACC_R][MISS] = 0
	L2_cache_stats_breakdown[LOCAL_ACC_R][RESERVATION_FAIL] = 0
	L2_cache_stats_breakdown[LOCAL_ACC_R][SECTOR_MISS] = 0
	L2_cache_stats_breakdown[CONST_ACC_R][HIT] = 0
	L2_cache_stats_breakdown[CONST_ACC_R][HIT_RESERVED] = 0
	L2_cache_stats_breakdown[CONST_ACC_R][MISS] = 0
	L2_cache_stats_breakdown[CONST_ACC_R][RESERVATION_FAIL] = 0
	L2_cache_stats_breakdown[CONST_ACC_R][SECTOR_MISS] = 0
	L2_cache_stats_breakdown[TEXTURE_ACC_R][HIT] = 0
	L2_cache_stats_breakdown[TEXTURE_ACC_R][HIT_RESERVED] = 0
	L2_cache_stats_breakdown[TEXTURE_ACC_R][MISS] = 0
	L2_cache_stats_breakdown[TEXTURE_ACC_R][RESERVATION_FAIL] = 0
	L2_cache_stats_breakdown[TEXTURE_ACC_R][SECTOR_MISS] = 0
	L2_cache_stats_breakdown[GLOBAL_ACC_W][HIT] = 6261
	L2_cache_stats_breakdown[GLOBAL_ACC_W][HIT_RESERVED] = 0
	L2_cache_stats_breakdown[GLOBAL_ACC_W][MISS] = 313
	L2_cache_stats_breakdown[GLOBAL_ACC_W][RESERVATION_FAIL] = 0
	L2_cache_stats_breakdown[GLOBAL_ACC_W][SECTOR_MISS] = 1261
	L2_cache_stats_breakdown[LOCAL_ACC_W][HIT] = 0
	L2_cache_stats_breakdown[LOCAL_ACC_W][HIT_RESERVED] = 0
	L2_cache_stats_breakdown[LOCAL_ACC_W][MISS] = 0
	L2_cache_stats_breakdown[LOCAL_ACC_W][RESERVATION_FAIL] = 0
	L2_cache_stats_breakdown[LOCAL_ACC_W][SECTOR_MISS] = 0
	L2_cache_stats_breakdown[L1_WRBK_ACC][HIT] = 0
	L2_cache_stats_breakdown[L1_WRBK_ACC][HIT_RESERVED] = 0
	L2_cache_stats_breakdown[L1_WRBK_ACC][MISS] = 0
	L2_cache_stats_breakdown[L1_WRBK_ACC][RESERVATION_FAIL] = 0
	L2_cache_stats_breakdown[L1_WRBK_ACC][SECTOR_MISS] = 0
	L2_cache_stats_breakdown[L2_WRBK_ACC][HIT] = 0
	L2_cache_stats_breakdown[L2_WRBK_ACC][HIT_RESERVED] = 0
	L2_cache_stats_breakdown[L2_WRBK_ACC][MISS] = 0
	L2_cache_stats_breakdown[L2_WRBK_ACC][RESERVATION_FAIL] = 0
	L2_cache_stats_breakdown[L2_WRBK_ACC][SECTOR_MISS] = 0
	L2_cache_stats_breakdown[INST_ACC_R][HIT] = 0
	L2_cache_stats_breakdown[INST_ACC_R][HIT_RESERVED] = 0
	L2_cache_stats_breakdown[INST_ACC_R][MISS] = 0
	L2_cache_stats_breakdown[INST_ACC_R][RESERVATION_FAIL] = 0
	L2_cache_stats_breakdown[INST_ACC_R][SECTOR_MISS] = 0
	L2_cache_stats_breakdown[L1_WR_ALLOC_R][HIT] = 0
	L2_cache_stats_breakdown[L1_WR_ALLOC_R][HIT_RESERVED] = 0
	L2_cache_stats_breakdown[L1_WR_ALLOC_R][MISS] = 0
	L2_cache_stats_breakdown[L1_WR_ALLOC_R][RESERVATION_FAIL] = 0
	L2_cache_stats_breakdown[L1_WR_ALLOC_R][SECTOR_MISS] = 0
	L2_cache_stats_breakdown[L2_WR_ALLOC_R][HIT] = 0
	L2_cache_stats_breakdown[L2_WR_ALLOC_R][HIT_RESERVED] = 0
	L2_cache_stats_breakdown[L2_WR_ALLOC_R][MISS] = 0
	L2_cache_stats_breakdown[L2_WR_ALLOC_R][RESERVATION_FAIL] = 0
	L2_cache_stats_breakdown[L2_WR_ALLOC_R][SECTOR_MISS] = 0
	L2_cache_stats_breakdown[GLOBAL_ACC_R][TOTAL_ACCESS] = 146174
	L2_cache_stats_breakdown[GLOBAL_ACC_W][TOTAL_ACCESS] = 7835
L2_total_cache_reservation_fail_breakdown:
L2_cache_data_port_util = 0.007
L2_cache_fill_port_util = 0.053

icnt_total_pkts_mem_to_simt=154009
icnt_total_pkts_simt_to_mem=154009
LD_mem_lat_dist  0 0 0 0 0 0 0 0 0 0 0 0 0 0 0 0 0 0 0 0 0 0 0 0 0 0 0
ST_mem_lat_dist  0 0 0 0 0 0 0 0 0 0 0 0 0 0 0 0 0 0 0 0 0 0 0 0 0 0 0
----------------------------Interconnect-DETAILS--------------------------------
Req_Network_injected_packets_num = 154009
Req_Network_cycles = 98526
Req_Network_injected_packets_per_cycle =       1.5631 
Req_Network_conflicts_per_cycle =       0.3009
Req_Network_conflicts_per_cycle_util =       0.6285
Req_Bank_Level_Parallism =       3.2646
Req_Network_in_buffer_full_per_cycle =       0.0000
Req_Network_in_buffer_avg_util =       0.1015
Req_Network_out_buffer_full_per_cycle =       0.0000
Req_Network_out_buffer_avg_util =       0.0651

Reply_Network_injected_packets_num = 154009
Reply_Network_cycles = 98526
Reply_Network_injected_packets_per_cycle =        1.5631
Reply_Network_conflicts_per_cycle =        0.6613
Reply_Network_conflicts_per_cycle_util =       1.3493
Reply_Bank_Level_Parallism =       3.1893
Reply_Network_in_buffer_full_per_cycle =       0.0000
Reply_Network_in_buffer_avg_util =       0.0594
Reply_Network_out_buffer_full_per_cycle =       0.0000
Reply_Network_out_buffer_avg_util =       0.0521
----------------------------END-of-Interconnect-DETAILS-------------------------


gpgpu_simulation_time = 0 days, 0 hrs, 4 min, 15 sec (255 sec)
gpgpu_simulation_rate = 246720 (inst/sec)
gpgpu_simulation_rate = 386 (cycle/sec)
gpgpu_silicon_slowdown = 3536269x
GPGPU-Sim: synchronize waiting for inactive GPU simulation
GPGPU-Sim API: Stream Manager State
GPGPU-Sim: detected inactive GPU simulation thread
GPGPU-Sim: *** exit detected ***
