

        *** GPGPU-Sim Simulator Version 4.0.0  [build gpgpu-sim_git-commit-90ec3399763d7c8512cfe7dc193473086c38ca38_modified_0.0] ***


GPGPU-Sim PTX: simulation mode 0 (can change with PTX_SIM_MODE_FUNC environment variable:
               1=functional simulation only, 0=detailed performance simulator)
GPGPU-Sim PTX: overriding embedded ptx with ptx file (PTX_SIM_USE_PTX_FILE is set)
GPGPU-Sim: Configuration options:

-save_embedded_ptx                      0 # saves ptx files embedded in binary as <n>.ptx
-keep                                   0 # keep intermediate files created by GPGPU-Sim when interfacing with external programs
-gpgpu_ptx_save_converted_ptxplus                    0 # Saved converted ptxplus to a file
-gpgpu_occupancy_sm_number                   20 # The SM number to pass to ptxas when getting register usage for computing GPU occupancy. This parameter is required in the config.
-ptx_opcode_latency_int      4,13,4,5,145,32 # Opcode latencies for integers <ADD,MAX,MUL,MAD,DIV,SHFL>Default 1,1,19,25,145,32
-ptx_opcode_latency_fp          4,13,4,5,39 # Opcode latencies for single precision floating points <ADD,MAX,MUL,MAD,DIV>Default 1,1,1,1,30
-ptx_opcode_latency_dp         8,19,8,8,330 # Opcode latencies for double precision floating points <ADD,MAX,MUL,MAD,DIV>Default 8,8,8,8,335
-ptx_opcode_latency_sfu                    8 # Opcode latencies for SFU instructionsDefault 8
-ptx_opcode_latency_tesnor                   64 # Opcode latencies for Tensor instructionsDefault 64
-ptx_opcode_initiation_int          1,2,2,1,8,4 # Opcode initiation intervals for integers <ADD,MAX,MUL,MAD,DIV,SHFL>Default 1,1,4,4,32,4
-ptx_opcode_initiation_fp            1,2,1,1,4 # Opcode initiation intervals for single precision floating points <ADD,MAX,MUL,MAD,DIV>Default 1,1,1,1,5
-ptx_opcode_initiation_dp         8,16,8,8,130 # Opcode initiation intervals for double precision floating points <ADD,MAX,MUL,MAD,DIV>Default 8,8,8,8,130
-ptx_opcode_initiation_sfu                    8 # Opcode initiation intervals for sfu instructionsDefault 8
-ptx_opcode_initiation_tensor                   64 # Opcode initiation intervals for tensor instructionsDefault 64
-cdp_latency         7200,8000,100,12000,1600 # CDP API latency <cudaStreamCreateWithFlags, cudaGetParameterBufferV2_init_perWarp, cudaGetParameterBufferV2_perKernel, cudaLaunchDeviceV2_init_perWarp, cudaLaunchDevicV2_perKernel>Default 7200,8000,100,12000,1600
-network_mode                           1 # Interconnection network mode
-inter_config_file   config_fermi_islip.icnt # Interconnection network config file
-icnt_in_buffer_limit                   64 # in_buffer_limit
-icnt_out_buffer_limit                   64 # out_buffer_limit
-icnt_subnets                           2 # subnets
-icnt_arbiter_algo                      1 # arbiter_algo
-icnt_verbose                           0 # inct_verbose
-icnt_grant_cycles                      1 # grant_cycles
-gpgpu_ptx_use_cuobjdump                    1 # Use cuobjdump to extract ptx and sass from binaries
-gpgpu_experimental_lib_support                    0 # Try to extract code from cuda libraries [Broken because of unknown cudaGetExportTable]
-checkpoint_option                      0 #  checkpointing flag (0 = no checkpoint)
-checkpoint_kernel                      1 #  checkpointing during execution of which kernel (1- 1st kernel)
-checkpoint_CTA                         0 #  checkpointing after # of CTA (< less than total CTA)
-resume_option                          0 #  resume flag (0 = no resume)
-resume_kernel                          0 #  Resume from which kernel (1= 1st kernel)
-resume_CTA                             0 #  resume from which CTA 
-checkpoint_CTA_t                       0 #  resume from which CTA 
-checkpoint_insn_Y                      0 #  resume from which CTA 
-gpgpu_ptx_convert_to_ptxplus                    0 # Convert SASS (native ISA) to ptxplus and run ptxplus
-gpgpu_ptx_force_max_capability                   20 # Force maximum compute capability
-gpgpu_ptx_inst_debug_to_file                    0 # Dump executed instructions' debug information to file
-gpgpu_ptx_inst_debug_file       inst_debug.txt # Executed instructions' debug output file
-gpgpu_ptx_inst_debug_thread_uid                    1 # Thread UID for executed instructions' debug output
-gpgpu_simd_model                       1 # 1 = post-dominator
-gpgpu_shader_core_pipeline              1536:32 # shader core pipeline config, i.e., {<nthread>:<warpsize>}
-gpgpu_tex_cache:l1  N:4:128:24,L:R:m:N:L,T:128:4,128:2 # per-shader L1 texture cache  (READ-ONLY) config  {<nsets>:<bsize>:<assoc>,<rep>:<wr>:<alloc>:<wr_alloc>,<mshr>:<N>:<merge>,<mq>:<rf>}
-gpgpu_const_cache:l1 N:64:64:2,L:R:f:N:L,S:2:32,4 # per-shader L1 constant memory cache  (READ-ONLY) config  {<nsets>:<bsize>:<assoc>,<rep>:<wr>:<alloc>:<wr_alloc>,<mshr>:<N>:<merge>,<mq>} 
-gpgpu_cache:il1     N:4:128:4,L:R:f:N:L,S:2:32,4 # shader L1 instruction cache config  {<nsets>:<bsize>:<assoc>,<rep>:<wr>:<alloc>:<wr_alloc>,<mshr>:<N>:<merge>,<mq>} 
-gpgpu_cache:dl1     N:32:128:4,L:L:m:N:H,S:64:8,8 # per-shader L1 data cache config  {<nsets>:<bsize>:<assoc>,<rep>:<wr>:<alloc>:<wr_alloc>,<mshr>:<N>:<merge>,<mq> | none}
-gpgpu_l1_banks                         1 # The number of L1 cache banks
-gpgpu_l1_banks_byte_interleaving                   32 # l1 banks byte interleaving granularity
-gpgpu_l1_banks_hashing_function                    0 # l1 banks hashing function
-gpgpu_l1_latency                      35 # L1 Hit Latency
-gpgpu_smem_latency                    26 # smem Latency
-gpgpu_cache:dl1PrefL1                 none # per-shader L1 data cache config  {<nsets>:<bsize>:<assoc>,<rep>:<wr>:<alloc>:<wr_alloc>,<mshr>:<N>:<merge>,<mq> | none}
-gpgpu_cache:dl1PrefShared                 none # per-shader L1 data cache config  {<nsets>:<bsize>:<assoc>,<rep>:<wr>:<alloc>:<wr_alloc>,<mshr>:<N>:<merge>,<mq> | none}
-gpgpu_gmem_skip_L1D                    0 # global memory access skip L1D cache (implements -Xptxas -dlcm=cg, default=no skip)
-gpgpu_perfect_mem                      0 # enable perfect memory mode (no cache miss)
-n_regfile_gating_group                    4 # group of lanes that should be read/written together)
-gpgpu_clock_gated_reg_file                    0 # enable clock gated reg file for power calculations
-gpgpu_clock_gated_lanes                    0 # enable clock gated lanes for power calculations
-gpgpu_shader_registers                32768 # Number of registers per shader core. Limits number of concurrent CTAs. (default 8192)
-gpgpu_registers_per_block                 8192 # Maximum number of registers per CTA. (default 8192)
-gpgpu_ignore_resources_limitation                    0 # gpgpu_ignore_resources_limitation (default 0)
-gpgpu_shader_cta                       8 # Maximum number of concurrent CTAs in shader (default 8)
-gpgpu_num_cta_barriers                   16 # Maximum number of named barriers per CTA (default 16)
-gpgpu_n_clusters                      15 # number of processing clusters
-gpgpu_n_cores_per_cluster                    1 # number of simd cores per cluster
-gpgpu_n_cluster_ejection_buffer_size                   32 # number of packets in ejection buffer
-gpgpu_n_ldst_response_buffer_size                    2 # number of response packets in ld/st unit ejection buffer
-gpgpu_shmem_per_block                49152 # Size of shared memory per thread block or CTA (default 48kB)
-gpgpu_shmem_size                   49152 # Size of shared memory per shader core (default 16kB)
-gpgpu_adaptive_cache_config                    0 # adaptive_cache_config
-gpgpu_shmem_sizeDefault                49152 # Size of shared memory per shader core (default 16kB)
-gpgpu_shmem_size_PrefL1                16384 # Size of shared memory per shader core (default 16kB)
-gpgpu_shmem_size_PrefShared                16384 # Size of shared memory per shader core (default 16kB)
-gpgpu_shmem_num_banks                   32 # Number of banks in the shared memory in each shader core (default 16)
-gpgpu_shmem_limited_broadcast                    0 # Limit shared memory to do one broadcast per cycle (default on)
-gpgpu_shmem_warp_parts                    1 # Number of portions a warp is divided into for shared memory bank conflict check 
-gpgpu_mem_unit_ports                    1 # The number of memory transactions allowed per core cycle
-gpgpu_shmem_warp_parts                    1 # Number of portions a warp is divided into for shared memory bank conflict check 
-gpgpu_warpdistro_shader                   -1 # Specify which shader core to collect the warp size distribution from
-gpgpu_warp_issue_shader                    0 # Specify which shader core to collect the warp issue distribution from
-gpgpu_local_mem_map                    1 # Mapping from local memory space address to simulated GPU physical address space (default = enabled)
-gpgpu_num_reg_banks                   16 # Number of register banks (default = 8)
-gpgpu_reg_bank_use_warp_id                    0 # Use warp ID in mapping registers to banks (default = off)
-gpgpu_sub_core_model                    0 # Sub Core Volta/Pascal model (default = off)
-gpgpu_enable_specialized_operand_collector                    1 # enable_specialized_operand_collector
-gpgpu_operand_collector_num_units_sp                    6 # number of collector units (default = 4)
-gpgpu_operand_collector_num_units_dp                    0 # number of collector units (default = 0)
-gpgpu_operand_collector_num_units_sfu                    8 # number of collector units (default = 4)
-gpgpu_operand_collector_num_units_int                    0 # number of collector units (default = 0)
-gpgpu_operand_collector_num_units_tensor_core                    4 # number of collector units (default = 4)
-gpgpu_operand_collector_num_units_mem                    2 # number of collector units (default = 2)
-gpgpu_operand_collector_num_units_gen                    0 # number of collector units (default = 0)
-gpgpu_operand_collector_num_in_ports_sp                    2 # number of collector unit in ports (default = 1)
-gpgpu_operand_collector_num_in_ports_dp                    0 # number of collector unit in ports (default = 0)
-gpgpu_operand_collector_num_in_ports_sfu                    1 # number of collector unit in ports (default = 1)
-gpgpu_operand_collector_num_in_ports_int                    0 # number of collector unit in ports (default = 0)
-gpgpu_operand_collector_num_in_ports_tensor_core                    1 # number of collector unit in ports (default = 1)
-gpgpu_operand_collector_num_in_ports_mem                    1 # number of collector unit in ports (default = 1)
-gpgpu_operand_collector_num_in_ports_gen                    0 # number of collector unit in ports (default = 0)
-gpgpu_operand_collector_num_out_ports_sp                    2 # number of collector unit in ports (default = 1)
-gpgpu_operand_collector_num_out_ports_dp                    0 # number of collector unit in ports (default = 0)
-gpgpu_operand_collector_num_out_ports_sfu                    1 # number of collector unit in ports (default = 1)
-gpgpu_operand_collector_num_out_ports_int                    0 # number of collector unit in ports (default = 0)
-gpgpu_operand_collector_num_out_ports_tensor_core                    1 # number of collector unit in ports (default = 1)
-gpgpu_operand_collector_num_out_ports_mem                    1 # number of collector unit in ports (default = 1)
-gpgpu_operand_collector_num_out_ports_gen                    0 # number of collector unit in ports (default = 0)
-gpgpu_coalesce_arch                   20 # Coalescing arch (GT200 = 13, Fermi = 20)
-gpgpu_num_sched_per_core                    2 # Number of warp schedulers per core
-gpgpu_max_insn_issue_per_warp                    1 # Max number of instructions that can be issued per warp in one cycle by scheduler (either 1 or 2)
-gpgpu_dual_issue_diff_exec_units                    1 # should dual issue use two different execution unit resources (Default = 1)
-gpgpu_simt_core_sim_order                    1 # Select the simulation order of cores in a cluster (0=Fix, 1=Round-Robin)
-gpgpu_pipeline_widths 2,0,0,1,1,2,0,0,1,1,2 # Pipeline widths ID_OC_SP,ID_OC_DP,ID_OC_INT,ID_OC_SFU,ID_OC_MEM,OC_EX_SP,OC_EX_DP,OC_EX_INT,OC_EX_SFU,OC_EX_MEM,EX_WB,ID_OC_TENSOR_CORE,OC_EX_TENSOR_CORE
-gpgpu_tensor_core_avail                    0 # Tensor Core Available (default=0)
-gpgpu_num_sp_units                     2 # Number of SP units (default=1)
-gpgpu_num_dp_units                     0 # Number of DP units (default=0)
-gpgpu_num_int_units                    0 # Number of INT units (default=0)
-gpgpu_num_sfu_units                    1 # Number of SF units (default=1)
-gpgpu_num_tensor_core_units                    0 # Number of tensor_core units (default=1)
-gpgpu_num_mem_units                    1 # Number if ldst units (default=1) WARNING: not hooked up to anything
-gpgpu_scheduler                      lrr # Scheduler configuration: < lrr | gto | two_level_active > If two_level_active:<num_active_warps>:<inner_prioritization>:<outer_prioritization>For complete list of prioritization values see shader.h enum scheduler_prioritization_typeDefault: gto
-gpgpu_concurrent_kernel_sm                    0 # Support concurrent kernels on a SM (default = disabled)
-gpgpu_perfect_inst_const_cache                    0 # perfect inst and const cache mode, so all inst and const hits in the cache(default = disabled)
-gpgpu_inst_fetch_throughput                    1 # the number of fetched intruction per warp each cycle
-gpgpu_reg_file_port_throughput                    1 # the number ports of the register file
-specialized_unit_1         0,4,4,4,4,BRA # specialized unit config {<enabled>,<num_units>:<latency>:<initiation>,<ID_OC_SPEC>:<OC_EX_SPEC>,<NAME>}
-specialized_unit_2         0,4,4,4,4,BRA # specialized unit config {<enabled>,<num_units>:<latency>:<initiation>,<ID_OC_SPEC>:<OC_EX_SPEC>,<NAME>}
-specialized_unit_3         0,4,4,4,4,BRA # specialized unit config {<enabled>,<num_units>:<latency>:<initiation>,<ID_OC_SPEC>:<OC_EX_SPEC>,<NAME>}
-specialized_unit_4         0,4,4,4,4,BRA # specialized unit config {<enabled>,<num_units>:<latency>:<initiation>,<ID_OC_SPEC>:<OC_EX_SPEC>,<NAME>}
-specialized_unit_5         0,4,4,4,4,BRA # specialized unit config {<enabled>,<num_units>:<latency>:<initiation>,<ID_OC_SPEC>:<OC_EX_SPEC>,<NAME>}
-specialized_unit_6         0,4,4,4,4,BRA # specialized unit config {<enabled>,<num_units>:<latency>:<initiation>,<ID_OC_SPEC>:<OC_EX_SPEC>,<NAME>}
-specialized_unit_7         0,4,4,4,4,BRA # specialized unit config {<enabled>,<num_units>:<latency>:<initiation>,<ID_OC_SPEC>:<OC_EX_SPEC>,<NAME>}
-specialized_unit_8         0,4,4,4,4,BRA # specialized unit config {<enabled>,<num_units>:<latency>:<initiation>,<ID_OC_SPEC>:<OC_EX_SPEC>,<NAME>}
-gpgpu_perf_sim_memcpy                    1 # Fill the L2 cache on memcpy
-gpgpu_simple_dram_model                    0 # simple_dram_model with fixed latency and BW
-gpgpu_dram_scheduler                    1 # 0 = fifo, 1 = FR-FCFS (defaul)
-gpgpu_dram_partition_queues          64:64:64:64 # i2$:$2d:d2$:$2i
-l2_ideal                               0 # Use a ideal L2 cache that always hit
-gpgpu_cache:dl2     S:64:128:8,L:B:m:L:L,A:256:4,4:0,32 # unified banked L2 data cache config  {<nsets>:<bsize>:<assoc>,<rep>:<wr>:<alloc>:<wr_alloc>,<mshr>:<N>:<merge>,<mq>}
-gpgpu_cache:dl2_texture_only                    0 # L2 cache used for texture only
-gpgpu_n_mem                            6 # number of memory modules (e.g. memory controllers) in gpu
-gpgpu_n_sub_partition_per_mchannel                    2 # number of memory subpartition in each memory module
-gpgpu_n_mem_per_ctrlr                    2 # number of memory chips per memory controller
-gpgpu_memlatency_stat                   14 # track and display latency statistics 0x2 enables MC, 0x4 enables queue logs
-gpgpu_frfcfs_dram_sched_queue_size                   64 # 0 = unlimited (default); # entries per chip
-gpgpu_dram_return_queue_size                  116 # 0 = unlimited (default); # entries per chip
-gpgpu_dram_buswidth                    4 # default = 4 bytes (8 bytes per cycle at DDR)
-gpgpu_dram_burst_length                    8 # Burst length of each DRAM request (default = 4 data bus cycle)
-dram_data_command_freq_ratio                    4 # Frequency ratio between DRAM data bus and command bus (default = 2 times, i.e. DDR)
-gpgpu_dram_timing_opt nbk=16:CCD=2:RRD=6:RCD=12:RAS=28:RP=12:RC=40: CL=12:WL=4:CDLR=5:WR=12:nbkgrp=4:CCDL=3:RTPL=2 # DRAM timing parameters = {nbk:tCCD:tRRD:tRCD:tRAS:tRP:tRC:CL:WL:tCDLR:tWR:nbkgrp:tCCDL:tRTPL}
-gpgpu_l2_rop_latency                  120 # ROP queue latency (default 85)
-dram_latency                         100 # DRAM latency (default 30)
-dram_dual_bus_interface                    0 # dual_bus_interface (default = 0) 
-dram_bnk_indexing_policy                    0 # dram_bnk_indexing_policy (0 = normal indexing, 1 = Xoring with the higher bits) (Default = 0)
-dram_bnkgrp_indexing_policy                    1 # dram_bnkgrp_indexing_policy (0 = take higher bits, 1 = take lower bits) (Default = 0)
-dram_seperate_write_queue_enable                    0 # Seperate_Write_Queue_Enable
-dram_write_queue_size             32:28:16 # Write_Queue_Size
-dram_elimnate_rw_turnaround                    0 # elimnate_rw_turnaround i.e set tWTR and tRTW = 0
-icnt_flit_size                        40 # icnt_flit_size
-gpgpu_mem_addr_mapping dramid@8;00000000.00000000.00000000.00000000.0000RRRR.RRRRRRRR.BBBCCCCB.CCSSSSSS # mapping memory address to dram model {dramid@<start bit>;<memory address map>}
-gpgpu_mem_addr_test                    0 # run sweep test to check address mapping for aliased address
-gpgpu_mem_address_mask                    1 # 0 = old addressing mask, 1 = new addressing mask, 2 = new add. mask + flipped bank sel and chip sel bits
-gpgpu_memory_partition_indexing                    0 # 0 = no indexing, 1 = bitwise xoring, 2 = IPoly, 3 = custom indexing
-gpuwattch_xml_file  gpuwattch_gtx480.xml # GPUWattch XML file
-power_simulation_enabled                    1 # Turn on power simulator (1=On, 0=Off)
-power_per_cycle_dump                    0 # Dump detailed power output each cycle
-power_trace_enabled                    0 # produce a file for the power trace (1=On, 0=Off)
-power_trace_zlevel                     6 # Compression level of the power trace output log (0=no comp, 9=highest)
-steady_power_levels_enabled                    0 # produce a file for the steady power levels (1=On, 0=Off)
-steady_state_definition                  8:4 # allowed deviation:number of samples
-gpgpu_max_cycle                        0 # terminates gpu simulation early (0 = no limit)
-gpgpu_max_insn                         0 # terminates gpu simulation early (0 = no limit)
-gpgpu_max_cta                          0 # terminates gpu simulation early (0 = no limit)
-gpgpu_max_completed_cta                    0 # terminates gpu simulation early (0 = no limit)
-gpgpu_runtime_stat                   500 # display runtime statistics such as dram utilization {<freq>:<flag>}
-liveness_message_freq                    1 # Minimum number of seconds between simulation liveness messages (0 = always print)
-gpgpu_compute_capability_major                    2 # Major compute capability version number
-gpgpu_compute_capability_minor                    0 # Minor compute capability version number
-gpgpu_flush_l1_cache                    1 # Flush L1 cache at the end of each kernel call
-gpgpu_flush_l2_cache                    0 # Flush L2 cache at the end of each kernel call
-gpgpu_deadlock_detect                    1 # Stop the simulation at deadlock (1=on (default), 0=off)
-gpgpu_ptx_instruction_classification                    0 # if enabled will classify ptx instruction types per kernel (Max 255 kernels now)
-gpgpu_ptx_sim_mode                     0 # Select between Performance (default) or Functional simulation (1)
-gpgpu_clock_domains 700.0:700.0:700.0:924.0 # Clock Domain Frequencies in MhZ {<Core Clock>:<ICNT Clock>:<L2 Clock>:<DRAM Clock>}
-gpgpu_max_concurrent_kernel                    8 # maximum kernels that can run concurrently on GPU
-gpgpu_cflog_interval                    0 # Interval between each snapshot in control flow logger
-visualizer_enabled                     0 # Turn on visualizer output (1=On, 0=Off)
-visualizer_outputfile                 NULL # Specifies the output log file for visualizer
-visualizer_zlevel                      6 # Compression level of the visualizer output log (0=no comp, 9=highest)
-gpgpu_stack_size_limit                 1024 # GPU thread stack size
-gpgpu_heap_size_limit              8388608 # GPU malloc heap size 
-gpgpu_runtime_sync_depth_limit                    2 # GPU device runtime synchronize depth
-gpgpu_runtime_pending_launch_count_limit                 2048 # GPU device runtime pending launch count
-trace_enabled                          0 # Turn on traces
-trace_components                    none # comma seperated list of traces to enable. Complete list found in trace_streams.tup. Default none
-trace_sampling_core                    0 # The core which is printed using CORE_DPRINTF. Default 0
-trace_sampling_memory_partition                   -1 # The memory partition which is printed using MEMPART_DPRINTF. Default -1 (i.e. all)
-enable_ptx_file_line_stats                    1 # Turn on PTX source line statistic profiling. (1 = On)
-ptx_line_stats_filename gpgpu_inst_stats.txt # Output file for PTX source line statistics.
-gpgpu_kernel_launch_latency                    0 # Kernel launch latency in cycles. Default: 0
-gpgpu_cdp_enabled                      0 # Turn on CDP
-gpgpu_TB_launch_latency                    0 # thread block launch latency in cycles. Default: 0
DRAM Timing Options:
nbk                                    16 # number of banks
CCD                                     2 # column to column delay
RRD                                     6 # minimal delay between activation of rows in different banks
RCD                                    12 # row to column delay
RAS                                    28 # time needed to activate row
RP                                     12 # time needed to precharge (deactivate) row
RC                                     40 # row cycle time
CDLR                                    5 # switching from write to read (changes tWTR)
WR                                     12 # last data-in to row precharge
CL                                     12 # CAS latency
WL                                      4 # Write latency
nbkgrp                                  4 # number of bank groups
CCDL                                    3 # column to column delay between accesses to different bank groups
RTPL                                    2 # read to precharge delay between accesses to different bank groups
Total number of memory sub partition = 12
addr_dec_mask[CHIP]  = 0000000000000000 	high:64 low:0
addr_dec_mask[BK]    = 000000000000e100 	high:16 low:8
addr_dec_mask[ROW]   = 000000000fff0000 	high:28 low:16
addr_dec_mask[COL]   = 0000000000001eff 	high:13 low:0
addr_dec_mask[BURST] = 000000000000003f 	high:6 low:0
sub_partition_id_mask = 0000000000000100
GPGPU-Sim uArch: clock freqs: 700000000.000000:700000000.000000:700000000.000000:924000000.000000
GPGPU-Sim uArch: clock periods: 0.00000000142857142857:0.00000000142857142857:0.00000000142857142857:0.00000000108225108225
*** Initializing Memory Statistics ***
GPGPU-Sim uArch: interconnect node map (shaderID+MemID to icntID)
GPGPU-Sim uArch: Memory nodes ID start from index: 15
GPGPU-Sim uArch:    0   1   2   3   4
GPGPU-Sim uArch:    5   6   7   8   9
GPGPU-Sim uArch:   10  11  12  13  14
GPGPU-Sim uArch:   15  16  17  18  19
GPGPU-Sim uArch:   20  21  22  23  24
GPGPU-Sim uArch:   25  26
GPGPU-Sim uArch: interconnect node reverse map (icntID to shaderID+MemID)
GPGPU-Sim uArch: Memory nodes start from ID: 15
GPGPU-Sim uArch:    0   1   2   3   4
GPGPU-Sim uArch:    5   6   7   8   9
GPGPU-Sim uArch:   10  11  12  13  14
GPGPU-Sim uArch:   15  16  17  18  19
GPGPU-Sim uArch:   20  21  22  23  24
GPGPU-Sim uArch:   25  26
0de6eb70c9e61875b3d5fcce854fbf32  /home/ishan/COA/Lab4/gpu-rodinia/cuda/pathfinder/a.out
Extracting PTX file and ptxas options    1: a.1.sm_52.ptx -arch=sm_52
GPGPU-Sim uArch: performance model initialization complete.
self exe links to: /home/ishan/COA/Lab4/gpu-rodinia/cuda/pathfinder/a.out
self exe links to: /home/ishan/COA/Lab4/gpu-rodinia/cuda/pathfinder/a.out
11.0
GPGPU-Sim PTX: __cudaRegisterFatBinary, fat_cubin_handle = 1, filename=default
self exe links to: /home/ishan/COA/Lab4/gpu-rodinia/cuda/pathfinder/a.out
Running md5sum using "md5sum /home/ishan/COA/Lab4/gpu-rodinia/cuda/pathfinder/a.out "
self exe links to: /home/ishan/COA/Lab4/gpu-rodinia/cuda/pathfinder/a.out
Extracting specific PTX file named a.1.sm_52.ptx 
GPGPU-Sim PTX: __cudaRegisterFunction _Z14dynproc_kerneliPiS_S_iiii : hostFun 0x0x5640a8a77ba4, fat_cubin_handle = 1
GPGPU-Sim PTX: Parsing a.1.sm_52.ptx
GPGPU-Sim PTX: allocating shared region for "_ZZ14dynproc_kerneliPiS_S_iiiiE4prev" from 0x0 to 0x400 (shared memory space)
GPGPU-Sim PTX: allocating shared region for "_ZZ14dynproc_kerneliPiS_S_iiiiE6result" from 0x400 to 0x800 (shared memory space)
GPGPU-Sim PTX: instruction assembly for function '_Z14dynproc_kerneliPiS_S_iiii'...   done.
GPGPU-Sim PTX: finished parsing EMBEDDED .ptx file a.1.sm_52.ptx
GPGPU-Sim PTX: loading globals with explicit initializers... 
GPGPU-Sim PTX: finished loading globals (0 bytes total).
GPGPU-Sim PTX: loading constants with explicit initializers...  done.
GPGPU-Sim PTX: Loading PTXInfo from a.1.sm_52.ptx
GPGPU-Sim PTX: Kernel '_Z14dynproc_kerneliPiS_S_iiii' : regs=18, lmem=0, smem=2048, cmem=368
pyramidHeight: 20
gridSize: [10000]
border:[20]
blockSize: 256
blockGrid:[47]
targetBlock:[216]
GPGPU-Sim PTX: Setting up arguments for 4 bytes starting at 0x7ffec78bd27c..
GPGPU-Sim PTX: Setting up arguments for 8 bytes starting at 0x7ffec78bd270..
GPGPU-Sim PTX: Setting up arguments for 8 bytes starting at 0x7ffec78bd268..
GPGPU-Sim PTX: Setting up arguments for 8 bytes starting at 0x7ffec78bd260..
GPGPU-Sim PTX: Setting up arguments for 4 bytes starting at 0x7ffec78bd278..
GPGPU-Sim PTX: Setting up arguments for 4 bytes starting at 0x7ffec78bd25c..
GPGPU-Sim PTX: Setting up arguments for 4 bytes starting at 0x7ffec78bd310..
GPGPU-Sim PTX: Setting up arguments for 4 bytes starting at 0x7ffec78bd318..

GPGPU-Sim PTX: cudaLaunch for 0x0x5640a8a77ba4 (mode=performance simulation) on stream 0
GPGPU-Sim PTX: finding reconvergence points for '_Z14dynproc_kerneliPiS_S_iiii'...
GPGPU-Sim PTX: Finding dominators for '_Z14dynproc_kerneliPiS_S_iiii'...
GPGPU-Sim PTX: Finding immediate dominators for '_Z14dynproc_kerneliPiS_S_iiii'...
GPGPU-Sim PTX: Finding postdominators for '_Z14dynproc_kerneliPiS_S_iiii'...
GPGPU-Sim PTX: Finding immediate postdominators for '_Z14dynproc_kerneliPiS_S_iiii'...
GPGPU-Sim PTX: pre-decoding instructions for '_Z14dynproc_kerneliPiS_S_iiii'...
GPGPU-Sim PTX: reconvergence points for _Z14dynproc_kerneliPiS_S_iiii...
GPGPU-Sim PTX:  1 (potential) branch divergence @  PC=0x0c0 (a.1.sm_52.ptx:61) @!%p3 bra BB0_2;
GPGPU-Sim PTX:    immediate post dominator      @  PC=0x110 (a.1.sm_52.ptx:75) bar.sync 0;
GPGPU-Sim PTX:  2 (potential) branch divergence @  PC=0x0c8 (a.1.sm_52.ptx:62) bra.uni BB0_1;
GPGPU-Sim PTX:    immediate post dominator      @  PC=0x0d0 (a.1.sm_52.ptx:65) cvta.to.global.u64 %rd4, %rd2;
GPGPU-Sim PTX:  3 (potential) branch divergence @  PC=0x120 (a.1.sm_52.ptx:77) @%p4 bra BB0_10;
GPGPU-Sim PTX:    immediate post dominator      @  PC=0x338 (a.1.sm_52.ptx:157) and.b16 %rs6, %rs8, 255;
GPGPU-Sim PTX:  4 (potential) branch divergence @  PC=0x208 (a.1.sm_52.ptx:109) @!%p12 bra BB0_6;
GPGPU-Sim PTX:    immediate post dominator      @  PC=0x2b8 (a.1.sm_52.ptx:135) bar.sync 0;
GPGPU-Sim PTX:  5 (potential) branch divergence @  PC=0x210 (a.1.sm_52.ptx:110) bra.uni BB0_5;
GPGPU-Sim PTX:    immediate post dominator      @  PC=0x218 (a.1.sm_52.ptx:113) ld.shared.u32 %r70, [%r2];
GPGPU-Sim PTX:  6 (potential) branch divergence @  PC=0x2c8 (a.1.sm_52.ptx:137) @%p15 bra BB0_10;
GPGPU-Sim PTX:    immediate post dominator      @  PC=0x338 (a.1.sm_52.ptx:157) and.b16 %rs6, %rs8, 255;
GPGPU-Sim PTX:  7 (potential) branch divergence @  PC=0x2d8 (a.1.sm_52.ptx:140) @%p16 bra BB0_9;
GPGPU-Sim PTX:    immediate post dominator      @  PC=0x310 (a.1.sm_52.ptx:150) bar.sync 0;
GPGPU-Sim PTX:  8 (potential) branch divergence @  PC=0x330 (a.1.sm_52.ptx:154) @%p17 bra BB0_4;
GPGPU-Sim PTX:    immediate post dominator      @  PC=0x338 (a.1.sm_52.ptx:157) and.b16 %rs6, %rs8, 255;
GPGPU-Sim PTX:  9 (potential) branch divergence @  PC=0x348 (a.1.sm_52.ptx:159) @%p18 bra BB0_12;
GPGPU-Sim PTX:    immediate post dominator      @  PC=0x390 (a.1.sm_52.ptx:171) ret;
GPGPU-Sim PTX: ... end of reconvergence points for _Z14dynproc_kerneliPiS_S_iiii
GPGPU-Sim PTX: ... done pre-decoding instructions for '_Z14dynproc_kerneliPiS_S_iiii'.
GPGPU-Sim PTX: pushing kernel '_Z14dynproc_kerneliPiS_S_iiii' to stream 0, gridDim= (47,1,1) blockDim = (256,1,1) 
GPGPU-Sim uArch: Shader 0 bind to kernel 1 '_Z14dynproc_kerneliPiS_S_iiii'
GPGPU-Sim uArch: CTA/core = 6, limited by: threads regs
GPGPU-Sim uArch: Shader 1 bind to kernel 1 '_Z14dynproc_kerneliPiS_S_iiii'
GPGPU-Sim uArch: Shader 2 bind to kernel 1 '_Z14dynproc_kerneliPiS_S_iiii'
GPGPU-Sim uArch: Shader 3 bind to kernel 1 '_Z14dynproc_kerneliPiS_S_iiii'
GPGPU-Sim uArch: Shader 4 bind to kernel 1 '_Z14dynproc_kerneliPiS_S_iiii'
GPGPU-Sim uArch: Shader 5 bind to kernel 1 '_Z14dynproc_kerneliPiS_S_iiii'
GPGPU-Sim uArch: Shader 6 bind to kernel 1 '_Z14dynproc_kerneliPiS_S_iiii'
GPGPU-Sim uArch: Shader 7 bind to kernel 1 '_Z14dynproc_kerneliPiS_S_iiii'
GPGPU-Sim uArch: Shader 8 bind to kernel 1 '_Z14dynproc_kerneliPiS_S_iiii'
GPGPU-Sim uArch: Shader 9 bind to kernel 1 '_Z14dynproc_kerneliPiS_S_iiii'
GPGPU-Sim uArch: Shader 10 bind to kernel 1 '_Z14dynproc_kerneliPiS_S_iiii'
GPGPU-Sim uArch: Shader 11 bind to kernel 1 '_Z14dynproc_kerneliPiS_S_iiii'
GPGPU-Sim uArch: Shader 12 bind to kernel 1 '_Z14dynproc_kerneliPiS_S_iiii'
GPGPU-Sim uArch: Shader 13 bind to kernel 1 '_Z14dynproc_kerneliPiS_S_iiii'
GPGPU-Sim uArch: Shader 14 bind to kernel 1 '_Z14dynproc_kerneliPiS_S_iiii'
Destroy streams for kernel 1: size 0
kernel_name = _Z14dynproc_kerneliPiS_S_iiii 
kernel_launch_uid = 1 
gpu_sim_cycle = 25439
gpu_sim_insn = 12710760
gpu_ipc =     499.6564
gpu_tot_sim_cycle = 25439
gpu_tot_sim_insn = 12710760
gpu_tot_ipc =     499.6564
gpu_tot_issued_cta = 47
gpu_occupancy = 51.8989% 
gpu_tot_occupancy = 51.8989% 
max_total_param_size = 0
gpu_stall_dramfull = 170
gpu_stall_icnt2sh    = 0
partiton_level_parallism =       0.3512
partiton_level_parallism_total  =       0.3512
partiton_level_parallism_util =       1.3295
partiton_level_parallism_util_total  =       1.3295
L2_BW  =      30.6181 GB/Sec
L2_BW_total  =      30.6181 GB/Sec
gpu_total_sim_rate=706153

========= Core cache stats =========
L1I_cache:
	L1I_total_cache_accesses = 225037
	L1I_total_cache_misses = 2751
	L1I_total_cache_miss_rate = 0.0122
	L1I_total_cache_pending_hits = 0
	L1I_total_cache_reservation_fails = 0
L1D_cache:
	L1D_cache_core[0]: Access = 1336, Miss = 748, Miss_rate = 0.560, Pending_hits = 588, Reservation_fails = 27
	L1D_cache_core[1]: Access = 1123, Miss = 640, Miss_rate = 0.570, Pending_hits = 483, Reservation_fails = 20
	L1D_cache_core[2]: Access = 1011, Miss = 570, Miss_rate = 0.564, Pending_hits = 441, Reservation_fails = 0
	L1D_cache_core[3]: Access = 1011, Miss = 570, Miss_rate = 0.564, Pending_hits = 441, Reservation_fails = 0
	L1D_cache_core[4]: Access = 1011, Miss = 570, Miss_rate = 0.564, Pending_hits = 441, Reservation_fails = 0
	L1D_cache_core[5]: Access = 1011, Miss = 570, Miss_rate = 0.564, Pending_hits = 441, Reservation_fails = 18
	L1D_cache_core[6]: Access = 1011, Miss = 570, Miss_rate = 0.564, Pending_hits = 441, Reservation_fails = 0
	L1D_cache_core[7]: Access = 1011, Miss = 570, Miss_rate = 0.564, Pending_hits = 441, Reservation_fails = 23
	L1D_cache_core[8]: Access = 1011, Miss = 570, Miss_rate = 0.564, Pending_hits = 441, Reservation_fails = 0
	L1D_cache_core[9]: Access = 1011, Miss = 570, Miss_rate = 0.564, Pending_hits = 441, Reservation_fails = 0
	L1D_cache_core[10]: Access = 1011, Miss = 570, Miss_rate = 0.564, Pending_hits = 441, Reservation_fails = 0
	L1D_cache_core[11]: Access = 1011, Miss = 570, Miss_rate = 0.564, Pending_hits = 441, Reservation_fails = 9
	L1D_cache_core[12]: Access = 1011, Miss = 570, Miss_rate = 0.564, Pending_hits = 441, Reservation_fails = 0
	L1D_cache_core[13]: Access = 1011, Miss = 570, Miss_rate = 0.564, Pending_hits = 441, Reservation_fails = 16
	L1D_cache_core[14]: Access = 1011, Miss = 570, Miss_rate = 0.564, Pending_hits = 441, Reservation_fails = 0
	L1D_total_cache_accesses = 15602
	L1D_total_cache_misses = 8798
	L1D_total_cache_miss_rate = 0.5639
	L1D_total_cache_pending_hits = 6804
	L1D_total_cache_reservation_fails = 113
	L1D_cache_data_port_util = 0.000
	L1D_cache_fill_port_util = 0.025
L1C_cache:
	L1C_total_cache_accesses = 2632
	L1C_total_cache_misses = 480
	L1C_total_cache_miss_rate = 0.1824
	L1C_total_cache_pending_hits = 0
	L1C_total_cache_reservation_fails = 3389
L1T_cache:
	L1T_total_cache_accesses = 0
	L1T_total_cache_misses = 0
	L1T_total_cache_pending_hits = 0
	L1T_total_cache_reservation_fails = 0

Total_core_cache_stats:
	Total_core_cache_stats_breakdown[GLOBAL_ACC_R][HIT] = 0
	Total_core_cache_stats_breakdown[GLOBAL_ACC_R][HIT_RESERVED] = 6804
	Total_core_cache_stats_breakdown[GLOBAL_ACC_R][MISS] = 8126
	Total_core_cache_stats_breakdown[GLOBAL_ACC_R][RESERVATION_FAIL] = 8
	Total_core_cache_stats_breakdown[GLOBAL_ACC_R][SECTOR_MISS] = 0
	Total_core_cache_stats_breakdown[LOCAL_ACC_R][HIT] = 0
	Total_core_cache_stats_breakdown[LOCAL_ACC_R][HIT_RESERVED] = 0
	Total_core_cache_stats_breakdown[LOCAL_ACC_R][MISS] = 0
	Total_core_cache_stats_breakdown[LOCAL_ACC_R][RESERVATION_FAIL] = 0
	Total_core_cache_stats_breakdown[LOCAL_ACC_R][SECTOR_MISS] = 0
	Total_core_cache_stats_breakdown[CONST_ACC_R][HIT] = 2152
	Total_core_cache_stats_breakdown[CONST_ACC_R][HIT_RESERVED] = 0
	Total_core_cache_stats_breakdown[CONST_ACC_R][MISS] = 480
	Total_core_cache_stats_breakdown[CONST_ACC_R][RESERVATION_FAIL] = 3389
	Total_core_cache_stats_breakdown[CONST_ACC_R][SECTOR_MISS] = 0
	Total_core_cache_stats_breakdown[TEXTURE_ACC_R][HIT] = 0
	Total_core_cache_stats_breakdown[TEXTURE_ACC_R][HIT_RESERVED] = 0
	Total_core_cache_stats_breakdown[TEXTURE_ACC_R][MISS] = 0
	Total_core_cache_stats_breakdown[TEXTURE_ACC_R][RESERVATION_FAIL] = 0
	Total_core_cache_stats_breakdown[TEXTURE_ACC_R][SECTOR_MISS] = 0
	Total_core_cache_stats_breakdown[GLOBAL_ACC_W][HIT] = 0
	Total_core_cache_stats_breakdown[GLOBAL_ACC_W][HIT_RESERVED] = 0
	Total_core_cache_stats_breakdown[GLOBAL_ACC_W][MISS] = 672
	Total_core_cache_stats_breakdown[GLOBAL_ACC_W][RESERVATION_FAIL] = 105
	Total_core_cache_stats_breakdown[GLOBAL_ACC_W][SECTOR_MISS] = 0
	Total_core_cache_stats_breakdown[LOCAL_ACC_W][HIT] = 0
	Total_core_cache_stats_breakdown[LOCAL_ACC_W][HIT_RESERVED] = 0
	Total_core_cache_stats_breakdown[LOCAL_ACC_W][MISS] = 0
	Total_core_cache_stats_breakdown[LOCAL_ACC_W][RESERVATION_FAIL] = 0
	Total_core_cache_stats_breakdown[LOCAL_ACC_W][SECTOR_MISS] = 0
	Total_core_cache_stats_breakdown[L1_WRBK_ACC][HIT] = 0
	Total_core_cache_stats_breakdown[L1_WRBK_ACC][HIT_RESERVED] = 0
	Total_core_cache_stats_breakdown[L1_WRBK_ACC][MISS] = 0
	Total_core_cache_stats_breakdown[L1_WRBK_ACC][RESERVATION_FAIL] = 0
	Total_core_cache_stats_breakdown[L1_WRBK_ACC][SECTOR_MISS] = 0
	Total_core_cache_stats_breakdown[L2_WRBK_ACC][HIT] = 0
	Total_core_cache_stats_breakdown[L2_WRBK_ACC][HIT_RESERVED] = 0
	Total_core_cache_stats_breakdown[L2_WRBK_ACC][MISS] = 0
	Total_core_cache_stats_breakdown[L2_WRBK_ACC][RESERVATION_FAIL] = 0
	Total_core_cache_stats_breakdown[L2_WRBK_ACC][SECTOR_MISS] = 0
	Total_core_cache_stats_breakdown[INST_ACC_R][HIT] = 222286
	Total_core_cache_stats_breakdown[INST_ACC_R][HIT_RESERVED] = 0
	Total_core_cache_stats_breakdown[INST_ACC_R][MISS] = 2751
	Total_core_cache_stats_breakdown[INST_ACC_R][RESERVATION_FAIL] = 0
	Total_core_cache_stats_breakdown[INST_ACC_R][SECTOR_MISS] = 0
	Total_core_cache_stats_breakdown[L1_WR_ALLOC_R][HIT] = 0
	Total_core_cache_stats_breakdown[L1_WR_ALLOC_R][HIT_RESERVED] = 0
	Total_core_cache_stats_breakdown[L1_WR_ALLOC_R][MISS] = 0
	Total_core_cache_stats_breakdown[L1_WR_ALLOC_R][RESERVATION_FAIL] = 0
	Total_core_cache_stats_breakdown[L1_WR_ALLOC_R][SECTOR_MISS] = 0
	Total_core_cache_stats_breakdown[L2_WR_ALLOC_R][HIT] = 0
	Total_core_cache_stats_breakdown[L2_WR_ALLOC_R][HIT_RESERVED] = 0
	Total_core_cache_stats_breakdown[L2_WR_ALLOC_R][MISS] = 0
	Total_core_cache_stats_breakdown[L2_WR_ALLOC_R][RESERVATION_FAIL] = 0
	Total_core_cache_stats_breakdown[L2_WR_ALLOC_R][SECTOR_MISS] = 0
	Total_core_cache_stats_breakdown[GLOBAL_ACC_R][TOTAL_ACCESS] = 14930
	Total_core_cache_stats_breakdown[CONST_ACC_R][TOTAL_ACCESS] = 2632
	Total_core_cache_stats_breakdown[GLOBAL_ACC_W][TOTAL_ACCESS] = 672
	Total_core_cache_stats_breakdown[INST_ACC_R][TOTAL_ACCESS] = 225037

Total_core_cache_fail_stats:
	Total_core_cache_fail_stats_breakdown[GLOBAL_ACC_R][MISS_QUEUE_FULL] = 8
	Total_core_cache_fail_stats_breakdown[CONST_ACC_R][MSHR_MERGE_ENRTY_FAIL] = 3389
	Total_core_cache_fail_stats_breakdown[GLOBAL_ACC_W][MISS_QUEUE_FULL] = 105
ctas_completed 47, Shader 0 warp_id issue ditsribution:
warp_id:
0, 1, 2, 3, 4, 5, 6, 7, 8, 9, 10, 11, 12, 13, 14, 15, 16, 17, 18, 19, 20, 21, 22, 23, 24, 25, 26, 27, 28, 29, 30, 31, 
distro:
1166, 1166, 1166, 1166, 1166, 1166, 1166, 1166, 1166, 1166, 1166, 1166, 1166, 1166, 1166, 1166, 1166, 1166, 1166, 1166, 1166, 1166, 1166, 1166, 1166, 1166, 1166, 1166, 1166, 1166, 1166, 1166, 
gpgpu_n_tot_thrd_icount = 13941152
gpgpu_n_tot_w_icount = 435661
gpgpu_n_stall_shd_mem = 10829
gpgpu_n_mem_read_local = 0
gpgpu_n_mem_write_local = 0
gpgpu_n_mem_read_global = 8126
gpgpu_n_mem_write_global = 672
gpgpu_n_mem_texture = 0
gpgpu_n_mem_const = 15
gpgpu_n_load_insn  = 229320
gpgpu_n_store_insn = 10000
gpgpu_n_shmem_insn = 1306720
gpgpu_n_sstarr_insn = 0
gpgpu_n_tex_insn = 0
gpgpu_n_const_mem_insn = 0
gpgpu_n_param_mem_insn = 84224
gpgpu_n_shmem_bkconflict = 0
gpgpu_n_cache_bkconflict = 0
gpgpu_n_intrawarp_mshr_merge = 0
gpgpu_n_cmem_portconflict = 3389
gpgpu_stall_shd_mem[c_mem][resource_stall] = 3389
gpgpu_stall_shd_mem[s_mem][bk_conf] = 0
gpgpu_stall_shd_mem[gl_mem][resource_stall] = 0
gpgpu_stall_shd_mem[gl_mem][coal_stall] = 7440
gpgpu_stall_shd_mem[gl_mem][data_port_stall] = 0
gpu_reg_bank_conflict_stalls = 0
Warp Occupancy Distribution:
Stall:50988	W0_Idle:42657	W0_Scoreboard:130458	W1:0	W2:0	W3:0	W4:0	W5:0	W6:0	W7:0	W8:0	W9:0	W10:0	W11:0	W12:3219	W13:2484	W14:2484	W15:2484	W16:2484	W17:2484	W18:2484	W19:2484	W20:3035	W21:2484	W22:2484	W23:2484	W24:2484	W25:2484	W26:2484	W27:2484	W28:2484	W29:2484	W30:2484	W31:2484	W32:384695
single_issue_nums: WS0:218106	WS1:217555	
dual_issue_nums: WS0:0	WS1:0	
traffic_breakdown_coretomem[CONST_ACC_R] = 120 {8:15,}
traffic_breakdown_coretomem[GLOBAL_ACC_R] = 65008 {8:8126,}
traffic_breakdown_coretomem[GLOBAL_ACC_W] = 61632 {40:186,72:186,136:300,}
traffic_breakdown_coretomem[INST_ACC_R] = 960 {8:120,}
traffic_breakdown_memtocore[CONST_ACC_R] = 1200 {40:30,}
traffic_breakdown_memtocore[GLOBAL_ACC_R] = 1300160 {40:32504,}
traffic_breakdown_memtocore[GLOBAL_ACC_W] = 14064 {8:1758,}
traffic_breakdown_memtocore[INST_ACC_R] = 19200 {40:480,}
maxmflatency = 556 
max_icnt2mem_latency = 99 
maxmrqlatency = 181 
max_icnt2sh_latency = 97 
averagemflatency = 249 
avg_icnt2mem_latency = 11 
avg_mrq_latency = 14 
avg_icnt2sh_latency = 9 
mrq_lat_table:6885 	4899 	4827 	4035 	2657 	1129 	1441 	413 	0 	0 	0 	0 	0 	0 	0 	0 	0 	0 	0 	0 	0 	0 	0 	0 	0 	0 	0 	0 	0 	0 	0 	0 	
dq_lat_table:0 	0 	0 	0 	0 	0 	0 	0 	0 	0 	0 	0 	0 	0 	0 	0 	0 	0 	0 	0 	0 	0 	0 	0 	0 	0 	0 	0 	0 	0 	0 	0 	
mf_lat_table:0 	0 	0 	0 	0 	0 	0 	21476 	12728 	88 	0 	0 	0 	0 	0 	0 	0 	0 	0 	0 	0 	0 	0 	0 	0 	0 	0 	0 	0 	0 	0 	0 	
icnt2mem_lat_table:0 	0 	102 	27 	6 	8632 	166 	0 	0 	0 	0 	0 	0 	0 	0 	0 	0 	0 	0 	0 	0 	0 	0 	0 	
icnt2sh_lat_table:0 	0 	16840 	15415 	1717 	280 	40 	0 	0 	0 	0 	0 	0 	0 	0 	0 	0 	0 	0 	0 	0 	0 	0 	0 	
mf_lat_pw_table:0 	0 	0 	0 	0 	0 	0 	41 	6 	0 	0 	0 	0 	0 	0 	0 	0 	0 	0 	0 	0 	0 	0 	0 	0 	0 	0 	0 	0 	0 	0 	0 	
maximum concurrent accesses to same row:
dram[0]:       128       128       128       128       128       128       128       128       128       128       128       128       128       128       128       128 
dram[1]:       128       128       128       128       128       128       128       128       128       128       128       128       128       128       128       128 
dram[2]:       128       128       128       128       128       128       128       128       128       128       128       128       128       128       128       128 
dram[3]:       128       128       128       128       128       128       128       128       128       128       128       128       128       128       128       128 
dram[4]:       128       128       128       128       128       128       128       128       128       128       128       128       128       128       128       128 
dram[5]:       128       128       128       128       128       128       128       128       128       128       128       128       128       128       128       128 
maximum service time to same row:
dram[0]:      8676     10335     11488     11207     12381     12263     13341     13832     14381     14694     15964     15575     16596     16732     17762     17566 
dram[1]:      8461     10323     11499     11228     12452     12371     13347     13832     14379     14712     15969     15572     16854     16690     17719     17587 
dram[2]:      8454     10322     11338     11307     12460     12379     13669     13834     14560     14713     15991     15585     16862     16672     17719     17556 
dram[3]:      8600     10272     11219     11297     12269     12360     13675     13533     14591     14391     16047     15716     16975     16682     17728     17557 
dram[4]:     10329     10272     11219     11310     12269     12391     13753     13529     14594     14385     15840     15738     16715     16688     17565     17566 
dram[5]:     10344     10280     11216     11488     12263     12469     13829     13543     14698     14379     15537     15756     16719     16687     17563     17568 
average row accesses per activate:
dram[0]: 62.333332 180.000000 144.000000 148.000000 256.000000 256.000000 256.000000 256.000000 256.000000 256.000000 256.000000 256.000000 256.000000 256.000000 256.000000 256.000000 
dram[1]: 73.599998 180.000000 144.000000 144.000000 256.000000 256.000000 256.000000 256.000000 256.000000 256.000000 256.000000 256.000000 256.000000 256.000000 256.000000 256.000000 
dram[2]: 122.666664 180.000000 148.000000 144.000000 256.000000 256.000000 256.000000 256.000000 256.000000 256.000000 256.000000 256.000000 256.000000 256.000000 256.000000 256.000000 
dram[3]: 73.599998 180.000000 148.000000 144.000000 256.000000 256.000000 256.000000 256.000000 256.000000 256.000000 256.000000 256.000000 256.000000 256.000000 256.000000 256.000000 
dram[4]: 180.000000 180.000000 148.000000 144.000000 256.000000 256.000000 256.000000 256.000000 256.000000 256.000000 256.000000 256.000000 256.000000 256.000000 256.000000 256.000000 
dram[5]: 180.000000 180.000000 148.000000 144.000000 256.000000 256.000000 256.000000 256.000000 256.000000 256.000000 256.000000 256.000000 256.000000 256.000000 256.000000 256.000000 
average row locality = 26286/131 = 200.656494
number of total memory accesses made:
dram[0]:         0         0         0         0         0         0         0         0         0         0         0         0         0         0         0         0 
dram[1]:         0         0         0         0         0         0         0         0         0         0         0         0         0         0         0         0 
dram[2]:         0         0         0         0         0         0         0         0         0         0         0         0         0         0         0         0 
dram[3]:         0         0         0         0         0         0         0         0         0         0         0         0         0         0         0         0 
dram[4]:         0         0         0         0         0         0         0         0         0         0         0         0         0         0         0         0 
dram[5]:         0         0         0         0         0         0         0         0         0         0         0         0         0         0         0         0 
total accesses: 0
min_bank_accesses = 0!
min_chip_accesses = 0!
number of total read accesses:
dram[0]:         0         0         0         0         0         0         0         0         0         0         0         0         0         0         0         0 
dram[1]:         0         0         0         0         0         0         0         0         0         0         0         0         0         0         0         0 
dram[2]:         0         0         0         0         0         0         0         0         0         0         0         0         0         0         0         0 
dram[3]:         0         0         0         0         0         0         0         0         0         0         0         0         0         0         0         0 
dram[4]:         0         0         0         0         0         0         0         0         0         0         0         0         0         0         0         0 
dram[5]:         0         0         0         0         0         0         0         0         0         0         0         0         0         0         0         0 
total dram reads = 0
min_bank_accesses = 0!
min_chip_accesses = 0!
number of total write accesses:
dram[0]:         0         0         0         0         0         0         0         0         0         0         0         0         0         0         0         0 
dram[1]:         0         0         0         0         0         0         0         0         0         0         0         0         0         0         0         0 
dram[2]:         0         0         0         0         0         0         0         0         0         0         0         0         0         0         0         0 
dram[3]:         0         0         0         0         0         0         0         0         0         0         0         0         0         0         0         0 
dram[4]:         0         0         0         0         0         0         0         0         0         0         0         0         0         0         0         0 
dram[5]:         0         0         0         0         0         0         0         0         0         0         0         0         0         0         0         0 
total dram writes = 0
min_bank_accesses = 0!
min_chip_accesses = 0!
average mf latency per bank:
dram[0]:     none      none      none      none      none      none      none      none      none      none      none      none      none      none      none      none  
dram[1]:     none      none      none      none      none      none      none      none      none      none      none      none      none      none      none      none  
dram[2]:     none      none      none      none      none      none      none      none      none      none      none      none      none      none      none      none  
dram[3]:     none      none      none      none      none      none      none      none      none      none      none      none      none      none      none      none  
dram[4]:     none      none      none      none      none      none      none      none      none      none      none      none      none      none      none      none  
dram[5]:     none      none      none      none      none      none      none      none      none      none      none      none      none      none      none      none  
maximum mf latency per bank:
dram[0]:        501       508       431       357       469       520       436       444       285       313       292       286       293       283       339       284
dram[1]:        556       397       421       372       472       514       442       456       300       296       282       282       307       282       299       323
dram[2]:        489       475       417       373       486       541       442       451       295       291       288       305       278       282       289       287
dram[3]:        545       466       391       390       485       529       450       480       332       311       282       279       281       281       290       306
dram[4]:        534       485       349       386       460       508       441       466       318       304       277       274       285       282       284       301
dram[5]:        505       483       346       402       480       518       452       478       320       283       305       294       278       305       279       309
Memory Partition 0: 
Cache L2_bank_000:
MSHR contents

Cache L2_bank_001:
MSHR contents

In Dram Latency Queue (total = 0): 
DRAM[0]: 16 bks, busW=4 BL=8 CL=12, tRRD=6 tCCD=2, tRCD=12 tRAS=28 tRP=12 tRC=40
n_cmd=33579 n_nop=29128 n_act=39 n_pre=23 n_ref_event=94835709824592 n_req=4390 n_rd=4390 n_rd_L2_A=0 n_write=0 n_wr_bk=0 bw_util=0.2615
n_activity=14317 dram_eff=0.6133
bk0: 374a 32547i bk1: 360a 32663i bk2: 288a 32892i bk3: 296a 32793i bk4: 256a 32769i bk5: 256a 32723i bk6: 256a 32750i bk7: 256a 32758i bk8: 256a 32970i bk9: 256a 32910i bk10: 256a 32977i bk11: 256a 33005i bk12: 256a 32970i bk13: 256a 33001i bk14: 256a 32929i bk15: 256a 32978i 

------------------------------------------------------------------------

Row_Buffer_Locality = 0.994533
Row_Buffer_Locality_read = 0.994533
Row_Buffer_Locality_write = -nan
Bank_Level_Parallism = 1.456238
Bank_Level_Parallism_Col = 0.676796
Bank_Level_Parallism_Ready = 1.170537
write_to_read_ratio_blp_rw_average = 0.000000
GrpLevelPara = 0.000000 

BW Util details:
bwutil = 0.261473 
total_CMD = 33579 
util_bw = 8780 
Wasted_Col = 2441 
Wasted_Row = 184 
Idle = 22174 

BW Util Bottlenecks: 
RCDc_limit = 324 
RCDWRc_limit = 0 
WTRc_limit = 0 
RTWc_limit = 0 
CCDLc_limit = 2194 
rwq = 0 
CCDLc_limit_alone = 2194 
WTRc_limit_alone = 0 
RTWc_limit_alone = 0 

Commands details: 
total_CMD = 33579 
n_nop = 29128 
Read = 4390 
Write = 0 
L2_Alloc = 0 
L2_WB = 0 
n_act = 39 
n_pre = 23 
n_ref = 94835709824592 
n_req = 4390 
total_req = 4390 

Dual Bus Interface Util: 
issued_total_row = 62 
issued_total_col = 4390 
Row_Bus_Util =  0.001846 
CoL_Bus_Util = 0.130736 
Either_Row_CoL_Bus_Util = 0.132553 
Issued_on_Two_Bus_Simul_Util = 0.000030 
issued_two_Eff = 0.000225 
queue_avg = 2.386432 


dram_util_bins: 0 0 0 0 0 0 0 0 0 0
dram_eff_bins: 0 0 0 0 0 0 0 0 0 0
mrqq: max=64 avg=2.38643
Memory Partition 1: 
Cache L2_bank_002:
MSHR contents

Cache L2_bank_003:
MSHR contents

In Dram Latency Queue (total = 0): 
DRAM[1]: 16 bks, busW=4 BL=8 CL=12, tRRD=6 tCCD=2, tRCD=12 tRAS=28 tRP=12 tRC=40
n_cmd=33579 n_nop=29144 n_act=38 n_pre=22 n_ref_event=0 n_req=4376 n_rd=4376 n_rd_L2_A=0 n_write=0 n_wr_bk=0 bw_util=0.2606
n_activity=14259 dram_eff=0.6138
bk0: 368a 32628i bk1: 360a 32670i bk2: 288a 32934i bk3: 288a 32828i bk4: 256a 32759i bk5: 256a 32671i bk6: 256a 32759i bk7: 256a 32761i bk8: 256a 32961i bk9: 256a 32970i bk10: 256a 33022i bk11: 256a 32990i bk12: 256a 32905i bk13: 256a 32982i bk14: 256a 32960i bk15: 256a 32938i 

------------------------------------------------------------------------

Row_Buffer_Locality = 0.994744
Row_Buffer_Locality_read = 0.994744
Row_Buffer_Locality_write = -nan
Bank_Level_Parallism = 1.446169
Bank_Level_Parallism_Col = 1.004557
Bank_Level_Parallism_Ready = 1.162668
write_to_read_ratio_blp_rw_average = 0.000000
GrpLevelPara = 0.000000 

BW Util details:
bwutil = 0.260639 
total_CMD = 33579 
util_bw = 8752 
Wasted_Col = 2477 
Wasted_Row = 158 
Idle = 22192 

BW Util Bottlenecks: 
RCDc_limit = 293 
RCDWRc_limit = 0 
WTRc_limit = 0 
RTWc_limit = 0 
CCDLc_limit = 2274 
rwq = 0 
CCDLc_limit_alone = 2274 
WTRc_limit_alone = 0 
RTWc_limit_alone = 0 

Commands details: 
total_CMD = 33579 
n_nop = 29144 
Read = 4376 
Write = 0 
L2_Alloc = 0 
L2_WB = 0 
n_act = 38 
n_pre = 22 
n_ref = 0 
n_req = 4376 
total_req = 4376 

Dual Bus Interface Util: 
issued_total_row = 60 
issued_total_col = 4376 
Row_Bus_Util =  0.001787 
CoL_Bus_Util = 0.130320 
Either_Row_CoL_Bus_Util = 0.132077 
Issued_on_Two_Bus_Simul_Util = 0.000030 
issued_two_Eff = 0.000225 
queue_avg = 2.562762 


dram_util_bins: 0 0 0 0 0 0 0 0 0 0
dram_eff_bins: 0 0 0 0 0 0 0 0 0 0
mrqq: max=64 avg=2.56276
Memory Partition 2: 
Cache L2_bank_004:
MSHR contents

Cache L2_bank_005:
MSHR contents

In Dram Latency Queue (total = 0): 
DRAM[2]: 16 bks, busW=4 BL=8 CL=12, tRRD=6 tCCD=2, tRCD=12 tRAS=28 tRP=12 tRC=40
n_cmd=33579 n_nop=29137 n_act=37 n_pre=21 n_ref_event=0 n_req=4384 n_rd=4384 n_rd_L2_A=0 n_write=0 n_wr_bk=0 bw_util=0.2611
n_activity=14484 dram_eff=0.6054
bk0: 368a 32641i bk1: 360a 32680i bk2: 296a 32893i bk3: 288a 32844i bk4: 256a 32798i bk5: 256a 32657i bk6: 256a 32808i bk7: 256a 32752i bk8: 256a 32945i bk9: 256a 32882i bk10: 256a 33030i bk11: 256a 33018i bk12: 256a 32992i bk13: 256a 32994i bk14: 256a 32991i bk15: 256a 32978i 

------------------------------------------------------------------------

Row_Buffer_Locality = 0.995210
Row_Buffer_Locality_read = 0.995210
Row_Buffer_Locality_write = -nan
Bank_Level_Parallism = 1.430968
Bank_Level_Parallism_Col = 1.004513
Bank_Level_Parallism_Ready = 1.148723
write_to_read_ratio_blp_rw_average = 0.000000
GrpLevelPara = 0.000000 

BW Util details:
bwutil = 0.261116 
total_CMD = 33579 
util_bw = 8768 
Wasted_Col = 2473 
Wasted_Row = 183 
Idle = 22155 

BW Util Bottlenecks: 
RCDc_limit = 311 
RCDWRc_limit = 0 
WTRc_limit = 0 
RTWc_limit = 0 
CCDLc_limit = 2246 
rwq = 0 
CCDLc_limit_alone = 2246 
WTRc_limit_alone = 0 
RTWc_limit_alone = 0 

Commands details: 
total_CMD = 33579 
n_nop = 29137 
Read = 4384 
Write = 0 
L2_Alloc = 0 
L2_WB = 0 
n_act = 37 
n_pre = 21 
n_ref = 0 
n_req = 4384 
total_req = 4384 

Dual Bus Interface Util: 
issued_total_row = 58 
issued_total_col = 4384 
Row_Bus_Util =  0.001727 
CoL_Bus_Util = 0.130558 
Either_Row_CoL_Bus_Util = 0.132285 
Issued_on_Two_Bus_Simul_Util = 0.000000 
issued_two_Eff = 0.000000 
queue_avg = 2.351410 


dram_util_bins: 0 0 0 0 0 0 0 0 0 0
dram_eff_bins: 0 0 0 0 0 0 0 0 0 0
mrqq: max=64 avg=2.35141
Memory Partition 3: 
Cache L2_bank_006:
MSHR contents

Cache L2_bank_007:
MSHR contents

In Dram Latency Queue (total = 0): 
DRAM[3]: 16 bks, busW=4 BL=8 CL=12, tRRD=6 tCCD=2, tRCD=12 tRAS=28 tRP=12 tRC=40
n_cmd=33579 n_nop=29133 n_act=39 n_pre=23 n_ref_event=0 n_req=4384 n_rd=4384 n_rd_L2_A=0 n_write=0 n_wr_bk=0 bw_util=0.2611
n_activity=14098 dram_eff=0.6219
bk0: 368a 32577i bk1: 360a 32609i bk2: 296a 32830i bk3: 288a 32813i bk4: 256a 32767i bk5: 256a 32695i bk6: 256a 32819i bk7: 256a 32799i bk8: 256a 32884i bk9: 256a 32885i bk10: 256a 33012i bk11: 256a 33013i bk12: 256a 33007i bk13: 256a 33001i bk14: 256a 32960i bk15: 256a 32941i 

------------------------------------------------------------------------

Row_Buffer_Locality = 0.994754
Row_Buffer_Locality_read = 0.994754
Row_Buffer_Locality_write = -nan
Bank_Level_Parallism = 1.490473
Bank_Level_Parallism_Col = 1.480675
Bank_Level_Parallism_Ready = 1.154811
write_to_read_ratio_blp_rw_average = 0.000000
GrpLevelPara = 1.463149 

BW Util details:
bwutil = 0.261116 
total_CMD = 33579 
util_bw = 8768 
Wasted_Col = 2254 
Wasted_Row = 124 
Idle = 22433 

BW Util Bottlenecks: 
RCDc_limit = 271 
RCDWRc_limit = 0 
WTRc_limit = 0 
RTWc_limit = 0 
CCDLc_limit = 2074 
rwq = 0 
CCDLc_limit_alone = 2074 
WTRc_limit_alone = 0 
RTWc_limit_alone = 0 

Commands details: 
total_CMD = 33579 
n_nop = 29133 
Read = 4384 
Write = 0 
L2_Alloc = 0 
L2_WB = 0 
n_act = 39 
n_pre = 23 
n_ref = 0 
n_req = 4384 
total_req = 4384 

Dual Bus Interface Util: 
issued_total_row = 62 
issued_total_col = 4384 
Row_Bus_Util =  0.001846 
CoL_Bus_Util = 0.130558 
Either_Row_CoL_Bus_Util = 0.132404 
Issued_on_Two_Bus_Simul_Util = 0.000000 
issued_two_Eff = 0.000000 
queue_avg = 2.521427 


dram_util_bins: 0 0 0 0 0 0 0 0 0 0
dram_eff_bins: 0 0 0 0 0 0 0 0 0 0
mrqq: max=64 avg=2.52143
Memory Partition 4: 
Cache L2_bank_008:
MSHR contents

Cache L2_bank_009:
MSHR contents

In Dram Latency Queue (total = 0): 
DRAM[4]: 16 bks, busW=4 BL=8 CL=12, tRRD=6 tCCD=2, tRCD=12 tRAS=28 tRP=12 tRC=40
n_cmd=33579 n_nop=29147 n_act=36 n_pre=20 n_ref_event=4565658604079112714 n_req=4376 n_rd=4376 n_rd_L2_A=0 n_write=0 n_wr_bk=0 bw_util=0.2606
n_activity=13960 dram_eff=0.6269
bk0: 360a 32676i bk1: 360a 32658i bk2: 296a 32841i bk3: 288a 32788i bk4: 256a 32763i bk5: 256a 32701i bk6: 256a 32805i bk7: 256a 32782i bk8: 256a 32945i bk9: 256a 32925i bk10: 256a 33026i bk11: 256a 33025i bk12: 256a 33033i bk13: 256a 32987i bk14: 256a 33004i bk15: 256a 32933i 

------------------------------------------------------------------------

Row_Buffer_Locality = 0.995430
Row_Buffer_Locality_read = 0.995430
Row_Buffer_Locality_write = -nan
Bank_Level_Parallism = 1.464586
Bank_Level_Parallism_Col = 1.451208
Bank_Level_Parallism_Ready = 1.142596
write_to_read_ratio_blp_rw_average = 0.000000
GrpLevelPara = 1.436108 

BW Util details:
bwutil = 0.260639 
total_CMD = 33579 
util_bw = 8752 
Wasted_Col = 2306 
Wasted_Row = 78 
Idle = 22443 

BW Util Bottlenecks: 
RCDc_limit = 278 
RCDWRc_limit = 0 
WTRc_limit = 0 
RTWc_limit = 0 
CCDLc_limit = 2106 
rwq = 0 
CCDLc_limit_alone = 2106 
WTRc_limit_alone = 0 
RTWc_limit_alone = 0 

Commands details: 
total_CMD = 33579 
n_nop = 29147 
Read = 4376 
Write = 0 
L2_Alloc = 0 
L2_WB = 0 
n_act = 36 
n_pre = 20 
n_ref = 4565658604079112714 
n_req = 4376 
total_req = 4376 

Dual Bus Interface Util: 
issued_total_row = 56 
issued_total_col = 4376 
Row_Bus_Util =  0.001668 
CoL_Bus_Util = 0.130320 
Either_Row_CoL_Bus_Util = 0.131987 
Issued_on_Two_Bus_Simul_Util = 0.000000 
issued_two_Eff = 0.000000 
queue_avg = 2.434766 


dram_util_bins: 0 0 0 0 0 0 0 0 0 0
dram_eff_bins: 0 0 0 0 0 0 0 0 0 0
mrqq: max=64 avg=2.43477
Memory Partition 5: 
Cache L2_bank_010:
MSHR contents

Cache L2_bank_011:
MSHR contents

In Dram Latency Queue (total = 0): 
DRAM[5]: 16 bks, busW=4 BL=8 CL=12, tRRD=6 tCCD=2, tRCD=12 tRAS=28 tRP=12 tRC=40
n_cmd=33579 n_nop=29148 n_act=36 n_pre=20 n_ref_event=0 n_req=4376 n_rd=4376 n_rd_L2_A=0 n_write=0 n_wr_bk=0 bw_util=0.2606
n_activity=14263 dram_eff=0.6136
bk0: 360a 32670i bk1: 360a 32673i bk2: 296a 32909i bk3: 288a 32826i bk4: 256a 32758i bk5: 256a 32719i bk6: 256a 32750i bk7: 256a 32778i bk8: 256a 32900i bk9: 256a 32959i bk10: 256a 32976i bk11: 256a 32918i bk12: 256a 33035i bk13: 256a 32943i bk14: 256a 32979i bk15: 256a 32943i 

------------------------------------------------------------------------

Row_Buffer_Locality = 0.995430
Row_Buffer_Locality_read = 0.995430
Row_Buffer_Locality_write = -nan
Bank_Level_Parallism = 1.470009
Bank_Level_Parallism_Col = 0.000000
Bank_Level_Parallism_Ready = 1.167923
write_to_read_ratio_blp_rw_average = 0.000000
GrpLevelPara = 0.000000 

BW Util details:
bwutil = 0.260639 
total_CMD = 33579 
util_bw = 8752 
Wasted_Col = 2368 
Wasted_Row = 121 
Idle = 22338 

BW Util Bottlenecks: 
RCDc_limit = 274 
RCDWRc_limit = 0 
WTRc_limit = 0 
RTWc_limit = 0 
CCDLc_limit = 2171 
rwq = 0 
CCDLc_limit_alone = 2171 
WTRc_limit_alone = 0 
RTWc_limit_alone = 0 

Commands details: 
total_CMD = 33579 
n_nop = 29148 
Read = 4376 
Write = 0 
L2_Alloc = 0 
L2_WB = 0 
n_act = 36 
n_pre = 20 
n_ref = 0 
n_req = 4376 
total_req = 4376 

Dual Bus Interface Util: 
issued_total_row = 56 
issued_total_col = 4376 
Row_Bus_Util =  0.001668 
CoL_Bus_Util = 0.130320 
Either_Row_CoL_Bus_Util = 0.131957 
Issued_on_Two_Bus_Simul_Util = 0.000030 
issued_two_Eff = 0.000226 
queue_avg = 2.433187 


dram_util_bins: 0 0 0 0 0 0 0 0 0 0
dram_eff_bins: 0 0 0 0 0 0 0 0 0 0
mrqq: max=64 avg=2.43319

========= L2 cache stats =========
L2_cache_bank[0]: Access = 3000, Miss = 2342, Miss_rate = 0.781, Pending_hits = 253, Reservation_fails = 301
L2_cache_bank[1]: Access = 2853, Miss = 2329, Miss_rate = 0.816, Pending_hits = 267, Reservation_fails = 0
L2_cache_bank[2]: Access = 2973, Miss = 2335, Miss_rate = 0.785, Pending_hits = 298, Reservation_fails = 155
L2_cache_bank[3]: Access = 2850, Miss = 2325, Miss_rate = 0.816, Pending_hits = 278, Reservation_fails = 0
L2_cache_bank[4]: Access = 2987, Miss = 2344, Miss_rate = 0.785, Pending_hits = 232, Reservation_fails = 181
L2_cache_bank[5]: Access = 2853, Miss = 2325, Miss_rate = 0.815, Pending_hits = 244, Reservation_fails = 0
L2_cache_bank[6]: Access = 2985, Miss = 2345, Miss_rate = 0.786, Pending_hits = 280, Reservation_fails = 91
L2_cache_bank[7]: Access = 2858, Miss = 2324, Miss_rate = 0.813, Pending_hits = 240, Reservation_fails = 0
L2_cache_bank[8]: Access = 2853, Miss = 2332, Miss_rate = 0.817, Pending_hits = 255, Reservation_fails = 0
L2_cache_bank[9]: Access = 2850, Miss = 2322, Miss_rate = 0.815, Pending_hits = 258, Reservation_fails = 0
L2_cache_bank[10]: Access = 2857, Miss = 2334, Miss_rate = 0.817, Pending_hits = 224, Reservation_fails = 0
L2_cache_bank[11]: Access = 2853, Miss = 2324, Miss_rate = 0.815, Pending_hits = 218, Reservation_fails = 0
L2_total_cache_accesses = 34772
L2_total_cache_misses = 27981
L2_total_cache_miss_rate = 0.8047
L2_total_cache_pending_hits = 3047
L2_total_cache_reservation_fails = 728
L2_total_cache_breakdown:
	L2_cache_stats_breakdown[GLOBAL_ACC_R][HIT] = 3295
	L2_cache_stats_breakdown[GLOBAL_ACC_R][HIT_RESERVED] = 2957
	L2_cache_stats_breakdown[GLOBAL_ACC_R][MISS] = 6563
	L2_cache_stats_breakdown[GLOBAL_ACC_R][RESERVATION_FAIL] = 0
	L2_cache_stats_breakdown[GLOBAL_ACC_R][SECTOR_MISS] = 19689
	L2_cache_stats_breakdown[LOCAL_ACC_R][HIT] = 0
	L2_cache_stats_breakdown[LOCAL_ACC_R][HIT_RESERVED] = 0
	L2_cache_stats_breakdown[LOCAL_ACC_R][MISS] = 0
	L2_cache_stats_breakdown[LOCAL_ACC_R][RESERVATION_FAIL] = 0
	L2_cache_stats_breakdown[LOCAL_ACC_R][SECTOR_MISS] = 0
	L2_cache_stats_breakdown[CONST_ACC_R][HIT] = 22
	L2_cache_stats_breakdown[CONST_ACC_R][HIT_RESERVED] = 6
	L2_cache_stats_breakdown[CONST_ACC_R][MISS] = 1
	L2_cache_stats_breakdown[CONST_ACC_R][RESERVATION_FAIL] = 115
	L2_cache_stats_breakdown[CONST_ACC_R][SECTOR_MISS] = 1
	L2_cache_stats_breakdown[TEXTURE_ACC_R][HIT] = 0
	L2_cache_stats_breakdown[TEXTURE_ACC_R][HIT_RESERVED] = 0
	L2_cache_stats_breakdown[TEXTURE_ACC_R][MISS] = 0
	L2_cache_stats_breakdown[TEXTURE_ACC_R][RESERVATION_FAIL] = 0
	L2_cache_stats_breakdown[TEXTURE_ACC_R][SECTOR_MISS] = 0
	L2_cache_stats_breakdown[GLOBAL_ACC_W][HIT] = 63
	L2_cache_stats_breakdown[GLOBAL_ACC_W][HIT_RESERVED] = 0
	L2_cache_stats_breakdown[GLOBAL_ACC_W][MISS] = 313
	L2_cache_stats_breakdown[GLOBAL_ACC_W][RESERVATION_FAIL] = 0
	L2_cache_stats_breakdown[GLOBAL_ACC_W][SECTOR_MISS] = 1382
	L2_cache_stats_breakdown[LOCAL_ACC_W][HIT] = 0
	L2_cache_stats_breakdown[LOCAL_ACC_W][HIT_RESERVED] = 0
	L2_cache_stats_breakdown[LOCAL_ACC_W][MISS] = 0
	L2_cache_stats_breakdown[LOCAL_ACC_W][RESERVATION_FAIL] = 0
	L2_cache_stats_breakdown[LOCAL_ACC_W][SECTOR_MISS] = 0
	L2_cache_stats_breakdown[L1_WRBK_ACC][HIT] = 0
	L2_cache_stats_breakdown[L1_WRBK_ACC][HIT_RESERVED] = 0
	L2_cache_stats_breakdown[L1_WRBK_ACC][MISS] = 0
	L2_cache_stats_breakdown[L1_WRBK_ACC][RESERVATION_FAIL] = 0
	L2_cache_stats_breakdown[L1_WRBK_ACC][SECTOR_MISS] = 0
	L2_cache_stats_breakdown[L2_WRBK_ACC][HIT] = 0
	L2_cache_stats_breakdown[L2_WRBK_ACC][HIT_RESERVED] = 0
	L2_cache_stats_breakdown[L2_WRBK_ACC][MISS] = 0
	L2_cache_stats_breakdown[L2_WRBK_ACC][RESERVATION_FAIL] = 0
	L2_cache_stats_breakdown[L2_WRBK_ACC][SECTOR_MISS] = 0
	L2_cache_stats_breakdown[INST_ACC_R][HIT] = 364
	L2_cache_stats_breakdown[INST_ACC_R][HIT_RESERVED] = 84
	L2_cache_stats_breakdown[INST_ACC_R][MISS] = 8
	L2_cache_stats_breakdown[INST_ACC_R][RESERVATION_FAIL] = 613
	L2_cache_stats_breakdown[INST_ACC_R][SECTOR_MISS] = 24
	L2_cache_stats_breakdown[L1_WR_ALLOC_R][HIT] = 0
	L2_cache_stats_breakdown[L1_WR_ALLOC_R][HIT_RESERVED] = 0
	L2_cache_stats_breakdown[L1_WR_ALLOC_R][MISS] = 0
	L2_cache_stats_breakdown[L1_WR_ALLOC_R][RESERVATION_FAIL] = 0
	L2_cache_stats_breakdown[L1_WR_ALLOC_R][SECTOR_MISS] = 0
	L2_cache_stats_breakdown[L2_WR_ALLOC_R][HIT] = 0
	L2_cache_stats_breakdown[L2_WR_ALLOC_R][HIT_RESERVED] = 0
	L2_cache_stats_breakdown[L2_WR_ALLOC_R][MISS] = 0
	L2_cache_stats_breakdown[L2_WR_ALLOC_R][RESERVATION_FAIL] = 0
	L2_cache_stats_breakdown[L2_WR_ALLOC_R][SECTOR_MISS] = 0
	L2_cache_stats_breakdown[GLOBAL_ACC_R][TOTAL_ACCESS] = 32504
	L2_cache_stats_breakdown[CONST_ACC_R][TOTAL_ACCESS] = 30
	L2_cache_stats_breakdown[GLOBAL_ACC_W][TOTAL_ACCESS] = 1758
	L2_cache_stats_breakdown[INST_ACC_R][TOTAL_ACCESS] = 480
L2_total_cache_reservation_fail_breakdown:
	L2_cache_stats_fail_breakdown[CONST_ACC_R][MSHR_MERGE_ENRTY_FAIL] = 115
	L2_cache_stats_fail_breakdown[INST_ACC_R][MSHR_MERGE_ENRTY_FAIL] = 613
L2_cache_data_port_util = 0.012
L2_cache_fill_port_util = 0.086

icnt_total_pkts_mem_to_simt=34772
icnt_total_pkts_simt_to_mem=10019
LD_mem_lat_dist  0 0 0 0 0 0 0 0 0 0 0 0 0 0 0 0 0 0 0 0 0 0 0 0 0 0 0
ST_mem_lat_dist  0 0 0 0 0 0 0 0 0 0 0 0 0 0 0 0 0 0 0 0 0 0 0 0 0 0 0
----------------------------Interconnect-DETAILS--------------------------------
Class 0:
Packet latency average = 6.96616
	minimum = 5
	maximum = 95
Network latency average = 6.88727
	minimum = 5
	maximum = 95
Slowest packet = 2235
Flit latency average = 6.8184
	minimum = 5
	maximum = 95
Slowest flit = 2235
Fragmentation average = 0
	minimum = 0
	maximum = 0
Injected packet rate average = 0.0636308
	minimum = 0.0227603 (at node 2)
	maximum = 0.117929 (at node 15)
Accepted packet rate average = 0.0636308
	minimum = 0.0287747 (at node 16)
	maximum = 0.115806 (at node 0)
Injected flit rate average = 0.0652119
	minimum = 0.0253548 (at node 2)
	maximum = 0.117929 (at node 15)
Accepted flit rate average= 0.0652119
	minimum = 0.0321947 (at node 24)
	maximum = 0.115806 (at node 0)
Injected packet length average = 1.02485
Accepted packet length average = 1.02485
Total in-flight flits = 0 (0 measured)
====== Overall Traffic Statistics ======
====== Traffic class 0 ======
Packet latency average = 6.96616 (1 samples)
	minimum = 5 (1 samples)
	maximum = 95 (1 samples)
Network latency average = 6.88727 (1 samples)
	minimum = 5 (1 samples)
	maximum = 95 (1 samples)
Flit latency average = 6.8184 (1 samples)
	minimum = 5 (1 samples)
	maximum = 95 (1 samples)
Fragmentation average = 0 (1 samples)
	minimum = 0 (1 samples)
	maximum = 0 (1 samples)
Injected packet rate average = 0.0636308 (1 samples)
	minimum = 0.0227603 (1 samples)
	maximum = 0.117929 (1 samples)
Accepted packet rate average = 0.0636308 (1 samples)
	minimum = 0.0287747 (1 samples)
	maximum = 0.115806 (1 samples)
Injected flit rate average = 0.0652119 (1 samples)
	minimum = 0.0253548 (1 samples)
	maximum = 0.117929 (1 samples)
Accepted flit rate average = 0.0652119 (1 samples)
	minimum = 0.0321947 (1 samples)
	maximum = 0.115806 (1 samples)
Injected packet size average = 1.02485 (1 samples)
Accepted packet size average = 1.02485 (1 samples)
Hops average = 1 (1 samples)
----------------------------END-of-Interconnect-DETAILS-------------------------


gpgpu_simulation_time = 0 days, 0 hrs, 0 min, 18 sec (18 sec)
gpgpu_simulation_rate = 706153 (inst/sec)
gpgpu_simulation_rate = 1413 (cycle/sec)
gpgpu_silicon_slowdown = 495399x
GPGPU-Sim: synchronize waiting for inactive GPU simulation
GPGPU-Sim API: Stream Manager State
GPGPU-Sim: detected inactive GPU simulation thread
GPGPU-Sim PTX: Setting up arguments for 4 bytes starting at 0x7ffec78bd27c..
GPGPU-Sim PTX: Setting up arguments for 8 bytes starting at 0x7ffec78bd270..
GPGPU-Sim PTX: Setting up arguments for 8 bytes starting at 0x7ffec78bd268..
GPGPU-Sim PTX: Setting up arguments for 8 bytes starting at 0x7ffec78bd260..
GPGPU-Sim PTX: Setting up arguments for 4 bytes starting at 0x7ffec78bd278..
GPGPU-Sim PTX: Setting up arguments for 4 bytes starting at 0x7ffec78bd25c..
GPGPU-Sim PTX: Setting up arguments for 4 bytes starting at 0x7ffec78bd310..
GPGPU-Sim PTX: Setting up arguments for 4 bytes starting at 0x7ffec78bd318..

GPGPU-Sim PTX: cudaLaunch for 0x0x5640a8a77ba4 (mode=performance simulation) on stream 0
GPGPU-Sim PTX: PDOM analysis already done for _Z14dynproc_kerneliPiS_S_iiii 
GPGPU-Sim PTX: pushing kernel '_Z14dynproc_kerneliPiS_S_iiii' to stream 0, gridDim= (47,1,1) blockDim = (256,1,1) 
GPGPU-Sim uArch: Shader 2 bind to kernel 2 '_Z14dynproc_kerneliPiS_S_iiii'
GPGPU-Sim uArch: Shader 3 bind to kernel 2 '_Z14dynproc_kerneliPiS_S_iiii'
GPGPU-Sim uArch: Shader 4 bind to kernel 2 '_Z14dynproc_kerneliPiS_S_iiii'
GPGPU-Sim uArch: Shader 5 bind to kernel 2 '_Z14dynproc_kerneliPiS_S_iiii'
GPGPU-Sim uArch: Shader 6 bind to kernel 2 '_Z14dynproc_kerneliPiS_S_iiii'
GPGPU-Sim uArch: Shader 7 bind to kernel 2 '_Z14dynproc_kerneliPiS_S_iiii'
GPGPU-Sim uArch: Shader 8 bind to kernel 2 '_Z14dynproc_kerneliPiS_S_iiii'
GPGPU-Sim uArch: Shader 9 bind to kernel 2 '_Z14dynproc_kerneliPiS_S_iiii'
GPGPU-Sim uArch: Shader 10 bind to kernel 2 '_Z14dynproc_kerneliPiS_S_iiii'
GPGPU-Sim uArch: Shader 11 bind to kernel 2 '_Z14dynproc_kerneliPiS_S_iiii'
GPGPU-Sim uArch: Shader 12 bind to kernel 2 '_Z14dynproc_kerneliPiS_S_iiii'
GPGPU-Sim uArch: Shader 13 bind to kernel 2 '_Z14dynproc_kerneliPiS_S_iiii'
GPGPU-Sim uArch: Shader 14 bind to kernel 2 '_Z14dynproc_kerneliPiS_S_iiii'
GPGPU-Sim uArch: Shader 0 bind to kernel 2 '_Z14dynproc_kerneliPiS_S_iiii'
GPGPU-Sim uArch: Shader 1 bind to kernel 2 '_Z14dynproc_kerneliPiS_S_iiii'
Destroy streams for kernel 2: size 0
kernel_name = _Z14dynproc_kerneliPiS_S_iiii 
kernel_launch_uid = 2 
gpu_sim_cycle = 22841
gpu_sim_insn = 12710760
gpu_ipc =     556.4888
gpu_tot_sim_cycle = 48280
gpu_tot_sim_insn = 25421520
gpu_tot_ipc =     526.5435
gpu_tot_issued_cta = 94
gpu_occupancy = 51.7277% 
gpu_tot_occupancy = 51.8180% 
max_total_param_size = 0
gpu_stall_dramfull = 170
gpu_stall_icnt2sh    = 0
partiton_level_parallism =       0.3852
partiton_level_parallism_total  =       0.3673
partiton_level_parallism_util =       1.2851
partiton_level_parallism_util_total  =       1.3071
L2_BW  =      33.6005 GB/Sec
L2_BW_total  =      32.0290 GB/Sec
gpu_total_sim_rate=726329

========= Core cache stats =========
L1I_cache:
	L1I_total_cache_accesses = 450074
	L1I_total_cache_misses = 2751
	L1I_total_cache_miss_rate = 0.0061
	L1I_total_cache_pending_hits = 0
	L1I_total_cache_reservation_fails = 0
L1D_cache:
	L1D_cache_core[0]: Access = 2347, Miss = 1318, Miss_rate = 0.562, Pending_hits = 1029, Reservation_fails = 27
	L1D_cache_core[1]: Access = 2134, Miss = 1210, Miss_rate = 0.567, Pending_hits = 924, Reservation_fails = 20
	L1D_cache_core[2]: Access = 2347, Miss = 1318, Miss_rate = 0.562, Pending_hits = 1029, Reservation_fails = 10
	L1D_cache_core[3]: Access = 2134, Miss = 1210, Miss_rate = 0.567, Pending_hits = 924, Reservation_fails = 2
	L1D_cache_core[4]: Access = 2022, Miss = 1140, Miss_rate = 0.564, Pending_hits = 882, Reservation_fails = 0
	L1D_cache_core[5]: Access = 2022, Miss = 1140, Miss_rate = 0.564, Pending_hits = 882, Reservation_fails = 18
	L1D_cache_core[6]: Access = 2022, Miss = 1140, Miss_rate = 0.564, Pending_hits = 882, Reservation_fails = 0
	L1D_cache_core[7]: Access = 2022, Miss = 1140, Miss_rate = 0.564, Pending_hits = 882, Reservation_fails = 23
	L1D_cache_core[8]: Access = 2022, Miss = 1140, Miss_rate = 0.564, Pending_hits = 882, Reservation_fails = 0
	L1D_cache_core[9]: Access = 2022, Miss = 1140, Miss_rate = 0.564, Pending_hits = 882, Reservation_fails = 0
	L1D_cache_core[10]: Access = 2022, Miss = 1140, Miss_rate = 0.564, Pending_hits = 882, Reservation_fails = 0
	L1D_cache_core[11]: Access = 2022, Miss = 1140, Miss_rate = 0.564, Pending_hits = 882, Reservation_fails = 9
	L1D_cache_core[12]: Access = 2022, Miss = 1140, Miss_rate = 0.564, Pending_hits = 882, Reservation_fails = 0
	L1D_cache_core[13]: Access = 2022, Miss = 1140, Miss_rate = 0.564, Pending_hits = 882, Reservation_fails = 16
	L1D_cache_core[14]: Access = 2022, Miss = 1140, Miss_rate = 0.564, Pending_hits = 882, Reservation_fails = 0
	L1D_total_cache_accesses = 31204
	L1D_total_cache_misses = 17596
	L1D_total_cache_miss_rate = 0.5639
	L1D_total_cache_pending_hits = 13608
	L1D_total_cache_reservation_fails = 125
	L1D_cache_data_port_util = 0.000
	L1D_cache_fill_port_util = 0.026
L1C_cache:
	L1C_total_cache_accesses = 5264
	L1C_total_cache_misses = 480
	L1C_total_cache_miss_rate = 0.0912
	L1C_total_cache_pending_hits = 0
	L1C_total_cache_reservation_fails = 3389
L1T_cache:
	L1T_total_cache_accesses = 0
	L1T_total_cache_misses = 0
	L1T_total_cache_pending_hits = 0
	L1T_total_cache_reservation_fails = 0

Total_core_cache_stats:
	Total_core_cache_stats_breakdown[GLOBAL_ACC_R][HIT] = 0
	Total_core_cache_stats_breakdown[GLOBAL_ACC_R][HIT_RESERVED] = 13608
	Total_core_cache_stats_breakdown[GLOBAL_ACC_R][MISS] = 16252
	Total_core_cache_stats_breakdown[GLOBAL_ACC_R][RESERVATION_FAIL] = 19
	Total_core_cache_stats_breakdown[GLOBAL_ACC_R][SECTOR_MISS] = 0
	Total_core_cache_stats_breakdown[LOCAL_ACC_R][HIT] = 0
	Total_core_cache_stats_breakdown[LOCAL_ACC_R][HIT_RESERVED] = 0
	Total_core_cache_stats_breakdown[LOCAL_ACC_R][MISS] = 0
	Total_core_cache_stats_breakdown[LOCAL_ACC_R][RESERVATION_FAIL] = 0
	Total_core_cache_stats_breakdown[LOCAL_ACC_R][SECTOR_MISS] = 0
	Total_core_cache_stats_breakdown[CONST_ACC_R][HIT] = 4784
	Total_core_cache_stats_breakdown[CONST_ACC_R][HIT_RESERVED] = 0
	Total_core_cache_stats_breakdown[CONST_ACC_R][MISS] = 480
	Total_core_cache_stats_breakdown[CONST_ACC_R][RESERVATION_FAIL] = 3389
	Total_core_cache_stats_breakdown[CONST_ACC_R][SECTOR_MISS] = 0
	Total_core_cache_stats_breakdown[TEXTURE_ACC_R][HIT] = 0
	Total_core_cache_stats_breakdown[TEXTURE_ACC_R][HIT_RESERVED] = 0
	Total_core_cache_stats_breakdown[TEXTURE_ACC_R][MISS] = 0
	Total_core_cache_stats_breakdown[TEXTURE_ACC_R][RESERVATION_FAIL] = 0
	Total_core_cache_stats_breakdown[TEXTURE_ACC_R][SECTOR_MISS] = 0
	Total_core_cache_stats_breakdown[GLOBAL_ACC_W][HIT] = 0
	Total_core_cache_stats_breakdown[GLOBAL_ACC_W][HIT_RESERVED] = 0
	Total_core_cache_stats_breakdown[GLOBAL_ACC_W][MISS] = 1344
	Total_core_cache_stats_breakdown[GLOBAL_ACC_W][RESERVATION_FAIL] = 106
	Total_core_cache_stats_breakdown[GLOBAL_ACC_W][SECTOR_MISS] = 0
	Total_core_cache_stats_breakdown[LOCAL_ACC_W][HIT] = 0
	Total_core_cache_stats_breakdown[LOCAL_ACC_W][HIT_RESERVED] = 0
	Total_core_cache_stats_breakdown[LOCAL_ACC_W][MISS] = 0
	Total_core_cache_stats_breakdown[LOCAL_ACC_W][RESERVATION_FAIL] = 0
	Total_core_cache_stats_breakdown[LOCAL_ACC_W][SECTOR_MISS] = 0
	Total_core_cache_stats_breakdown[L1_WRBK_ACC][HIT] = 0
	Total_core_cache_stats_breakdown[L1_WRBK_ACC][HIT_RESERVED] = 0
	Total_core_cache_stats_breakdown[L1_WRBK_ACC][MISS] = 0
	Total_core_cache_stats_breakdown[L1_WRBK_ACC][RESERVATION_FAIL] = 0
	Total_core_cache_stats_breakdown[L1_WRBK_ACC][SECTOR_MISS] = 0
	Total_core_cache_stats_breakdown[L2_WRBK_ACC][HIT] = 0
	Total_core_cache_stats_breakdown[L2_WRBK_ACC][HIT_RESERVED] = 0
	Total_core_cache_stats_breakdown[L2_WRBK_ACC][MISS] = 0
	Total_core_cache_stats_breakdown[L2_WRBK_ACC][RESERVATION_FAIL] = 0
	Total_core_cache_stats_breakdown[L2_WRBK_ACC][SECTOR_MISS] = 0
	Total_core_cache_stats_breakdown[INST_ACC_R][HIT] = 447323
	Total_core_cache_stats_breakdown[INST_ACC_R][HIT_RESERVED] = 0
	Total_core_cache_stats_breakdown[INST_ACC_R][MISS] = 2751
	Total_core_cache_stats_breakdown[INST_ACC_R][RESERVATION_FAIL] = 0
	Total_core_cache_stats_breakdown[INST_ACC_R][SECTOR_MISS] = 0
	Total_core_cache_stats_breakdown[L1_WR_ALLOC_R][HIT] = 0
	Total_core_cache_stats_breakdown[L1_WR_ALLOC_R][HIT_RESERVED] = 0
	Total_core_cache_stats_breakdown[L1_WR_ALLOC_R][MISS] = 0
	Total_core_cache_stats_breakdown[L1_WR_ALLOC_R][RESERVATION_FAIL] = 0
	Total_core_cache_stats_breakdown[L1_WR_ALLOC_R][SECTOR_MISS] = 0
	Total_core_cache_stats_breakdown[L2_WR_ALLOC_R][HIT] = 0
	Total_core_cache_stats_breakdown[L2_WR_ALLOC_R][HIT_RESERVED] = 0
	Total_core_cache_stats_breakdown[L2_WR_ALLOC_R][MISS] = 0
	Total_core_cache_stats_breakdown[L2_WR_ALLOC_R][RESERVATION_FAIL] = 0
	Total_core_cache_stats_breakdown[L2_WR_ALLOC_R][SECTOR_MISS] = 0
	Total_core_cache_stats_breakdown[GLOBAL_ACC_R][TOTAL_ACCESS] = 29860
	Total_core_cache_stats_breakdown[CONST_ACC_R][TOTAL_ACCESS] = 5264
	Total_core_cache_stats_breakdown[GLOBAL_ACC_W][TOTAL_ACCESS] = 1344
	Total_core_cache_stats_breakdown[INST_ACC_R][TOTAL_ACCESS] = 450074

Total_core_cache_fail_stats:
	Total_core_cache_fail_stats_breakdown[GLOBAL_ACC_R][MISS_QUEUE_FULL] = 19
	Total_core_cache_fail_stats_breakdown[CONST_ACC_R][MSHR_MERGE_ENRTY_FAIL] = 3389
	Total_core_cache_fail_stats_breakdown[GLOBAL_ACC_W][MISS_QUEUE_FULL] = 106
ctas_completed 94, Shader 0 warp_id issue ditsribution:
warp_id:
0, 1, 2, 3, 4, 5, 6, 7, 8, 9, 10, 11, 12, 13, 14, 15, 16, 17, 18, 19, 20, 21, 22, 23, 24, 25, 26, 27, 28, 29, 30, 31, 
distro:
2332, 2332, 2332, 2332, 2332, 2332, 2332, 2332, 2332, 2332, 2332, 2332, 2332, 2332, 2332, 2332, 2332, 2332, 2332, 2332, 2332, 2332, 2332, 2332, 1166, 1166, 1166, 1166, 1166, 1166, 1166, 1166, 
gpgpu_n_tot_thrd_icount = 27882304
gpgpu_n_tot_w_icount = 871322
gpgpu_n_stall_shd_mem = 18269
gpgpu_n_mem_read_local = 0
gpgpu_n_mem_write_local = 0
gpgpu_n_mem_read_global = 16252
gpgpu_n_mem_write_global = 1344
gpgpu_n_mem_texture = 0
gpgpu_n_mem_const = 15
gpgpu_n_load_insn  = 458640
gpgpu_n_store_insn = 20000
gpgpu_n_shmem_insn = 2613440
gpgpu_n_sstarr_insn = 0
gpgpu_n_tex_insn = 0
gpgpu_n_const_mem_insn = 0
gpgpu_n_param_mem_insn = 168448
gpgpu_n_shmem_bkconflict = 0
gpgpu_n_cache_bkconflict = 0
gpgpu_n_intrawarp_mshr_merge = 0
gpgpu_n_cmem_portconflict = 3389
gpgpu_stall_shd_mem[c_mem][resource_stall] = 3389
gpgpu_stall_shd_mem[s_mem][bk_conf] = 0
gpgpu_stall_shd_mem[gl_mem][resource_stall] = 0
gpgpu_stall_shd_mem[gl_mem][coal_stall] = 14880
gpgpu_stall_shd_mem[gl_mem][data_port_stall] = 0
gpu_reg_bank_conflict_stalls = 0
Warp Occupancy Distribution:
Stall:91442	W0_Idle:49082	W0_Scoreboard:238640	W1:0	W2:0	W3:0	W4:0	W5:0	W6:0	W7:0	W8:0	W9:0	W10:0	W11:0	W12:6438	W13:4968	W14:4968	W15:4968	W16:4968	W17:4968	W18:4968	W19:4968	W20:6070	W21:4968	W22:4968	W23:4968	W24:4968	W25:4968	W26:4968	W27:4968	W28:4968	W29:4968	W30:4968	W31:4968	W32:769390
single_issue_nums: WS0:436212	WS1:435110	
dual_issue_nums: WS0:0	WS1:0	
traffic_breakdown_coretomem[CONST_ACC_R] = 120 {8:15,}
traffic_breakdown_coretomem[GLOBAL_ACC_R] = 130016 {8:16252,}
traffic_breakdown_coretomem[GLOBAL_ACC_W] = 123264 {40:372,72:372,136:600,}
traffic_breakdown_coretomem[INST_ACC_R] = 960 {8:120,}
traffic_breakdown_memtocore[CONST_ACC_R] = 1200 {40:30,}
traffic_breakdown_memtocore[GLOBAL_ACC_R] = 2600320 {40:65008,}
traffic_breakdown_memtocore[GLOBAL_ACC_W] = 28128 {8:3516,}
traffic_breakdown_memtocore[INST_ACC_R] = 19200 {40:480,}
maxmflatency = 556 
max_icnt2mem_latency = 99 
maxmrqlatency = 181 
max_icnt2sh_latency = 97 
averagemflatency = 241 
avg_icnt2mem_latency = 11 
avg_mrq_latency = 13 
avg_icnt2sh_latency = 9 
mrq_lat_table:13948 	9663 	9532 	7721 	5929 	2600 	2173 	448 	0 	0 	0 	0 	0 	0 	0 	0 	0 	0 	0 	0 	0 	0 	0 	0 	0 	0 	0 	0 	0 	0 	0 	0 	
dq_lat_table:0 	0 	0 	0 	0 	0 	0 	0 	0 	0 	0 	0 	0 	0 	0 	0 	0 	0 	0 	0 	0 	0 	0 	0 	0 	0 	0 	0 	0 	0 	0 	0 	
mf_lat_table:0 	0 	0 	0 	0 	0 	0 	44394 	24072 	88 	0 	0 	0 	0 	0 	0 	0 	0 	0 	0 	0 	0 	0 	0 	0 	0 	0 	0 	0 	0 	0 	0 	
[...]
dram[2]:        489       475       417       373       486       541       442       451       318       320       326       332       307       316       310       310
dram[3]:        545       466       391       390       485       529       450       480       332       324       331       325       317       311       294       309
dram[4]:        534       485       349       386       460       508       441       466       318       322       341       325       317       303       297       307
dram[5]:        505       483       346       402       480       518       452       478       320       333       305       323       300       354       308       322
Memory Partition 0: 
Cache L2_bank_000:
MSHR contents

Cache L2_bank_001:
MSHR contents

In Dram Latency Queue (total = 0): 
DRAM[0]: 16 bks, busW=4 BL=8 CL=12, tRRD=6 tCCD=2, tRCD=12 tRAS=28 tRP=12 tRC=40
n_cmd=153501 n_nop=131396 n_act=322 n_pre=306 n_ref_event=94835709824592 n_req=21308 n_rd=21132 n_rd_L2_A=0 n_write=0 n_wr_bk=350 bw_util=0.2799
n_activity=74283 dram_eff=0.5784
bk0: 1488a 148162i bk1: 1464a 148544i bk2: 1382a 148917i bk3: 1382a 148587i bk4: 1312a 150015i bk5: 1304a 149803i bk6: 1280a 150022i bk7: 1280a 149926i bk8: 1280a 150431i bk9: 1280a 150296i bk10: 1280a 150467i bk11: 1280a 150549i bk12: 1280a 150561i bk13: 1280a 150567i bk14: 1280a 150566i bk15: 1280a 150480i 

------------------------------------------------------------------------

Row_Buffer_Locality = 0.985592
Row_Buffer_Locality_read = 0.988785
Row_Buffer_Locality_write = 0.602273
Bank_Level_Parallism = 1.372936
Bank_Level_Parallism_Col = 0.676796
Bank_Level_Parallism_Ready = 1.088059
write_to_read_ratio_blp_rw_average = 0.000000
GrpLevelPara = 0.000000 

BW Util details:
bwutil = 0.279894 
total_CMD = 153501 
util_bw = 42964 
Wasted_Col = 14169 
Wasted_Row = 2602 
Idle = 93766 

BW Util Bottlenecks: 
RCDc_limit = 2124 
RCDWRc_limit = 354 
WTRc_limit = 239 
RTWc_limit = 644 
CCDLc_limit = 11981 
rwq = 0 
CCDLc_limit_alone = 11858 
WTRc_limit_alone = 229 
RTWc_limit_alone = 531 

Commands details: 
total_CMD = 153501 
n_nop = 131396 
Read = 21132 
Write = 0 
L2_Alloc = 0 
L2_WB = 350 
n_act = 322 
n_pre = 306 
n_ref = 94835709824592 
n_req = 21308 
total_req = 21482 

Dual Bus Interface Util: 
issued_total_row = 628 
issued_total_col = 21482 
Row_Bus_Util =  0.004091 
CoL_Bus_Util = 0.139947 
Either_Row_CoL_Bus_Util = 0.144006 
Issued_on_Two_Bus_Simul_Util = 0.000033 
issued_two_Eff = 0.000226 
queue_avg = 1.975251 


dram_util_bins: 0 0 0 0 0 0 0 0 0 0
dram_eff_bins: 0 0 0 0 0 0 0 0 0 0
mrqq: max=64 avg=1.97525
Memory Partition 1: 
Cache L2_bank_002:
MSHR contents

Cache L2_bank_003:
MSHR contents

In Dram Latency Queue (total = 0): 
DRAM[1]: 16 bks, busW=4 BL=8 CL=12, tRRD=6 tCCD=2, tRCD=12 tRAS=28 tRP=12 tRC=40
n_cmd=153501 n_nop=131393 n_act=332 n_pre=316 n_ref_event=0 n_req=21294 n_rd=21118 n_rd_L2_A=0 n_write=0 n_wr_bk=350 bw_util=0.2797
n_activity=74699 dram_eff=0.5748
bk0: 1484a 148031i bk1: 1462a 148501i bk2: 1376a 148907i bk3: 1380a 148575i bk4: 1312a 149971i bk5: 1304a 149720i bk6: 1280a 150113i bk7: 1280a 149938i bk8: 1280a 150461i bk9: 1280a 150426i bk10: 1280a 150536i bk11: 1280a 150525i bk12: 1280a 150553i bk13: 1280a 150590i bk14: 1280a 150594i bk15: 1280a 150540i 

------------------------------------------------------------------------

Row_Buffer_Locality = 0.985113
Row_Buffer_Locality_read = 0.988588
Row_Buffer_Locality_write = 0.568182
Bank_Level_Parallism = 1.366475
Bank_Level_Parallism_Col = 1.004557
Bank_Level_Parallism_Ready = 1.082325
write_to_read_ratio_blp_rw_average = 0.000000
GrpLevelPara = 0.000000 

BW Util details:
bwutil = 0.279712 
total_CMD = 153501 
util_bw = 42936 
Wasted_Col = 14515 
Wasted_Row = 2509 
Idle = 93541 

BW Util Bottlenecks: 
RCDc_limit = 2158 
RCDWRc_limit = 347 
WTRc_limit = 209 
RTWc_limit = 804 
CCDLc_limit = 12267 
rwq = 0 
CCDLc_limit_alone = 12140 
WTRc_limit_alone = 193 
RTWc_limit_alone = 693 

Commands details: 
total_CMD = 153501 
n_nop = 131393 
Read = 21118 
Write = 0 
L2_Alloc = 0 
L2_WB = 350 
n_act = 332 
n_pre = 316 
n_ref = 0 
n_req = 21294 
total_req = 21468 

Dual Bus Interface Util: 
issued_total_row = 648 
issued_total_col = 21468 
Row_Bus_Util =  0.004221 
CoL_Bus_Util = 0.139856 
Either_Row_CoL_Bus_Util = 0.144025 
Issued_on_Two_Bus_Simul_Util = 0.000052 
issued_two_Eff = 0.000362 
queue_avg = 1.987381 


dram_util_bins: 0 0 0 0 0 0 0 0 0 0
dram_eff_bins: 0 0 0 0 0 0 0 0 0 0
mrqq: max=64 avg=1.98738
Memory Partition 2: 
Cache L2_bank_004:
MSHR contents

Cache L2_bank_005:
MSHR contents

In Dram Latency Queue (total = 0): 
DRAM[2]: 16 bks, busW=4 BL=8 CL=12, tRRD=6 tCCD=2, tRCD=12 tRAS=28 tRP=12 tRC=40
n_cmd=153501 n_nop=131395 n_act=328 n_pre=312 n_ref_event=0 n_req=21300 n_rd=21126 n_rd_L2_A=0 n_write=0 n_wr_bk=348 bw_util=0.2798
n_activity=74076 dram_eff=0.5798
bk0: 1484a 147980i bk1: 1466a 148306i bk2: 1382a 148870i bk3: 1378a 149115i bk4: 1312a 149919i bk5: 1304a 149895i bk6: 1280a 150155i bk7: 1280a 150024i bk8: 1280a 150372i bk9: 1280a 150135i bk10: 1280a 150471i bk11: 1280a 150401i bk12: 1280a 150475i bk13: 1280a 150500i bk14: 1280a 150560i bk15: 1280a 150443i 

------------------------------------------------------------------------

Row_Buffer_Locality = 0.985352
Row_Buffer_Locality_read = 0.988734
Row_Buffer_Locality_write = 0.574713
Bank_Level_Parallism = 1.384827
Bank_Level_Parallism_Col = 1.004513
Bank_Level_Parallism_Ready = 1.087762
write_to_read_ratio_blp_rw_average = 0.000000
GrpLevelPara = 0.000000 

BW Util details:
bwutil = 0.279790 
total_CMD = 153501 
util_bw = 42948 
Wasted_Col = 14057 
Wasted_Row = 2389 
Idle = 94107 

BW Util Bottlenecks: 
RCDc_limit = 2098 
RCDWRc_limit = 362 
WTRc_limit = 235 
RTWc_limit = 686 
CCDLc_limit = 11825 
rwq = 0 
CCDLc_limit_alone = 11704 
WTRc_limit_alone = 213 
RTWc_limit_alone = 587 

Commands details: 
total_CMD = 153501 
n_nop = 131395 
Read = 21126 
Write = 0 
L2_Alloc = 0 
L2_WB = 348 
n_act = 328 
n_pre = 312 
n_ref = 0 
n_req = 21300 
total_req = 21474 

Dual Bus Interface Util: 
issued_total_row = 640 
issued_total_col = 21474 
Row_Bus_Util =  0.004169 
CoL_Bus_Util = 0.139895 
Either_Row_CoL_Bus_Util = 0.144012 
Issued_on_Two_Bus_Simul_Util = 0.000052 
issued_two_Eff = 0.000362 
queue_avg = 1.971714 


dram_util_bins: 0 0 0 0 0 0 0 0 0 0
dram_eff_bins: 0 0 0 0 0 0 0 0 0 0
mrqq: max=64 avg=1.97171
Memory Partition 3: 
Cache L2_bank_006:
MSHR contents

Cache L2_bank_007:
MSHR contents

In Dram Latency Queue (total = 0): 
DRAM[3]: 16 bks, busW=4 BL=8 CL=12, tRRD=6 tCCD=2, tRCD=12 tRAS=28 tRP=12 tRC=40
n_cmd=153501 n_nop=131428 n_act=315 n_pre=299 n_ref_event=0 n_req=21292 n_rd=21120 n_rd_L2_A=0 n_write=0 n_wr_bk=344 bw_util=0.2797
n_activity=73507 dram_eff=0.584
bk0: 1476a 148309i bk1: 1468a 148278i bk2: 1386a 148860i bk3: 1382a 148895i bk4: 1304a 149974i bk5: 1304a 149950i bk6: 1280a 150161i bk7: 1280a 150110i bk8: 1280a 150203i bk9: 1280a 150142i bk10: 1280a 150389i bk11: 1280a 150336i bk12: 1280a 150430i bk13: 1280a 150496i bk14: 1280a 150649i bk15: 1280a 150401i 

------------------------------------------------------------------------

Row_Buffer_Locality = 0.985957
Row_Buffer_Locality_read = 0.989015
Row_Buffer_Locality_write = 0.610465
Bank_Level_Parallism = 1.394916
Bank_Level_Parallism_Col = 1.374438
Bank_Level_Parallism_Ready = 1.096136
write_to_read_ratio_blp_rw_average = 0.032438
GrpLevelPara = 1.350907 

BW Util details:
bwutil = 0.279659 
total_CMD = 153501 
util_bw = 42928 
Wasted_Col = 13828 
Wasted_Row = 2248 
Idle = 94497 

BW Util Bottlenecks: 
RCDc_limit = 1995 
RCDWRc_limit = 329 
WTRc_limit = 195 
RTWc_limit = 734 
CCDLc_limit = 11789 
rwq = 0 
CCDLc_limit_alone = 11679 
WTRc_limit_alone = 194 
RTWc_limit_alone = 625 

Commands details: 
total_CMD = 153501 
n_nop = 131428 
Read = 21120 
Write = 0 
L2_Alloc = 0 
L2_WB = 344 
n_act = 315 
n_pre = 299 
n_ref = 0 
n_req = 21292 
total_req = 21464 

Dual Bus Interface Util: 
issued_total_row = 614 
issued_total_col = 21464 
Row_Bus_Util =  0.004000 
CoL_Bus_Util = 0.139830 
Either_Row_CoL_Bus_Util = 0.143797 
Issued_on_Two_Bus_Simul_Util = 0.000033 
issued_two_Eff = 0.000227 
queue_avg = 2.059498 


dram_util_bins: 0 0 0 0 0 0 0 0 0 0
dram_eff_bins: 0 0 0 0 0 0 0 0 0 0
mrqq: max=64 avg=2.0595
Memory Partition 4: 
Cache L2_bank_008:
MSHR contents

Cache L2_bank_009:
MSHR contents

In Dram Latency Queue (total = 0): 
DRAM[4]: 16 bks, busW=4 BL=8 CL=12, tRRD=6 tCCD=2, tRCD=12 tRAS=28 tRP=12 tRC=40
n_cmd=153501 n_nop=131439 n_act=320 n_pre=304 n_ref_event=4565658604079112714 n_req=21272 n_rd=21098 n_rd_L2_A=0 n_write=0 n_wr_bk=348 bw_util=0.2794
n_activity=73358 dram_eff=0.5847
bk0: 1460a 148546i bk1: 1466a 148374i bk2: 1384a 148969i bk3: 1380a 148518i bk4: 1304a 149939i bk5: 1304a 149867i bk6: 1280a 150147i bk7: 1280a 150110i bk8: 1280a 150330i bk9: 1280a 150172i bk10: 1280a 150348i bk11: 1280a 150447i bk12: 1280a 150573i bk13: 1280a 150505i bk14: 1280a 150679i bk15: 1280a 150589i 

------------------------------------------------------------------------

Row_Buffer_Locality = 0.985709
Row_Buffer_Locality_read = 0.988956
Row_Buffer_Locality_write = 0.591954
Bank_Level_Parallism = 1.378119
Bank_Level_Parallism_Col = 1.357629
Bank_Level_Parallism_Ready = 1.088444
write_to_read_ratio_blp_rw_average = 0.031437
GrpLevelPara = 1.331923 

BW Util details:
bwutil = 0.279425 
total_CMD = 153501 
util_bw = 42892 
Wasted_Col = 13984 
Wasted_Row = 2409 
Idle = 94216 

BW Util Bottlenecks: 
RCDc_limit = 2052 
RCDWRc_limit = 356 
WTRc_limit = 196 
RTWc_limit = 541 
CCDLc_limit = 11850 
rwq = 0 
CCDLc_limit_alone = 11772 
WTRc_limit_alone = 196 
RTWc_limit_alone = 463 

Commands details: 
total_CMD = 153501 
n_nop = 131439 
Read = 21098 
Write = 0 
L2_Alloc = 0 
L2_WB = 348 
n_act = 320 
n_pre = 304 
n_ref = 4565658604079112714 
n_req = 21272 
total_req = 21446 

Dual Bus Interface Util: 
issued_total_row = 624 
issued_total_col = 21446 
Row_Bus_Util =  0.004065 
CoL_Bus_Util = 0.139712 
Either_Row_CoL_Bus_Util = 0.143725 
Issued_on_Two_Bus_Simul_Util = 0.000052 
issued_two_Eff = 0.000363 
queue_avg = 1.984762 


dram_util_bins: 0 0 0 0 0 0 0 0 0 0
dram_eff_bins: 0 0 0 0 0 0 0 0 0 0
mrqq: max=64 avg=1.98476
Memory Partition 5: 
Cache L2_bank_010:
MSHR contents

Cache L2_bank_011:
MSHR contents

In Dram Latency Queue (total = 0): 
DRAM[5]: 16 bks, busW=4 BL=8 CL=12, tRRD=6 tCCD=2, tRCD=12 tRAS=28 tRP=12 tRC=40
n_cmd=153501 n_nop=131445 n_act=314 n_pre=298 n_ref_event=0 n_req=21278 n_rd=21104 n_rd_L2_A=0 n_write=0 n_wr_bk=348 bw_util=0.2795
n_activity=73682 dram_eff=0.5823
bk0: 1462a 148290i bk1: 1476a 148373i bk2: 1380a 148946i bk3: 1378a 148701i bk4: 1304a 149940i bk5: 1304a 149935i bk6: 1280a 149944i bk7: 1280a 150067i bk8: 1280a 150254i bk9: 1280a 150253i bk10: 1280a 150405i bk11: 1280a 150393i bk12: 1280a 150496i bk13: 1280a 150472i bk14: 1280a 150488i bk15: 1280a 150512i 

------------------------------------------------------------------------

Row_Buffer_Locality = 0.985995
Row_Buffer_Locality_read = 0.989102
Row_Buffer_Locality_write = 0.609195
Bank_Level_Parallism = 1.389125
Bank_Level_Parallism_Col = 0.000000
Bank_Level_Parallism_Ready = 1.097181
write_to_read_ratio_blp_rw_average = 0.000000
GrpLevelPara = 0.000000 

BW Util details:
bwutil = 0.279503 
total_CMD = 153501 
util_bw = 42904 
Wasted_Col = 14130 
Wasted_Row = 2303 
Idle = 94164 

BW Util Bottlenecks: 
RCDc_limit = 2081 
RCDWRc_limit = 338 
WTRc_limit = 224 
RTWc_limit = 713 
CCDLc_limit = 11851 
rwq = 0 
CCDLc_limit_alone = 11746 
WTRc_limit_alone = 210 
RTWc_limit_alone = 622 

Commands details: 
total_CMD = 153501 
n_nop = 131445 
Read = 21104 
Write = 0 
L2_Alloc = 0 
L2_WB = 348 
n_act = 314 
n_pre = 298 
n_ref = 0 
n_req = 21278 
total_req = 21452 

Dual Bus Interface Util: 
issued_total_row = 612 
issued_total_col = 21452 
Row_Bus_Util =  0.003987 
CoL_Bus_Util = 0.139752 
Either_Row_CoL_Bus_Util = 0.143686 
Issued_on_Two_Bus_Simul_Util = 0.000052 
issued_two_Eff = 0.000363 
queue_avg = 2.015687 


dram_util_bins: 0 0 0 0 0 0 0 0 0 0
dram_eff_bins: 0 0 0 0 0 0 0 0 0 0
mrqq: max=64 avg=2.01569

========= L2 cache stats =========
L2_cache_bank[0]: Access = 14253, Miss = 11295, Miss_rate = 0.792, Pending_hits = 1089, Reservation_fails = 301
L2_cache_bank[1]: Access = 14121, Miss = 11242, Miss_rate = 0.796, Pending_hits = 1223, Reservation_fails = 4
L2_cache_bank[2]: Access = 14253, Miss = 11278, Miss_rate = 0.791, Pending_hits = 1204, Reservation_fails = 158
L2_cache_bank[3]: Access = 14127, Miss = 11247, Miss_rate = 0.796, Pending_hits = 1131, Reservation_fails = 5
L2_cache_bank[4]: Access = 14238, Miss = 11290, Miss_rate = 0.793, Pending_hits = 1002, Reservation_fails = 182
L2_cache_bank[5]: Access = 14130, Miss = 11243, Miss_rate = 0.796, Pending_hits = 1069, Reservation_fails = 3
L2_cache_bank[6]: Access = 14243, Miss = 11274, Miss_rate = 0.792, Pending_hits = 1154, Reservation_fails = 94
L2_cache_bank[7]: Access = 14096, Miss = 11247, Miss_rate = 0.798, Pending_hits = 1170, Reservation_fails = 3
L2_cache_bank[8]: Access = 14128, Miss = 11253, Miss_rate = 0.797, Pending_hits = 1297, Reservation_fails = 3
L2_cache_bank[9]: Access = 14093, Miss = 11245, Miss_rate = 0.798, Pending_hits = 1221, Reservation_fails = 5
L2_cache_bank[10]: Access = 14117, Miss = 11255, Miss_rate = 0.797, Pending_hits = 1128, Reservation_fails = 4
L2_cache_bank[11]: Access = 14107, Miss = 11254, Miss_rate = 0.798, Pending_hits = 1169, Reservation_fails = 3
L2_total_cache_accesses = 169906
L2_total_cache_misses = 135123
L2_total_cache_miss_rate = 0.7953
L2_total_cache_pending_hits = 13857
L2_total_cache_reservation_fails = 765
L2_total_cache_breakdown:
	L2_cache_stats_breakdown[GLOBAL_ACC_R][HIT] = 20217
	L2_cache_stats_breakdown[GLOBAL_ACC_R][HIT_RESERVED] = 13767
	L2_cache_stats_breakdown[GLOBAL_ACC_R][MISS] = 31251
	L2_cache_stats_breakdown[GLOBAL_ACC_R][RESERVATION_FAIL] = 37
	L2_cache_stats_breakdown[GLOBAL_ACC_R][SECTOR_MISS] = 95413
	L2_cache_stats_breakdown[LOCAL_ACC_R][HIT] = 0
	L2_cache_stats_breakdown[LOCAL_ACC_R][HIT_RESERVED] = 0
	L2_cache_stats_breakdown[LOCAL_ACC_R][MISS] = 0
	L2_cache_stats_breakdown[LOCAL_ACC_R][RESERVATION_FAIL] = 0
	L2_cache_stats_breakdown[LOCAL_ACC_R][SECTOR_MISS] = 0
	L2_cache_stats_breakdown[CONST_ACC_R][HIT] = 22
	L2_cache_stats_breakdown[CONST_ACC_R][HIT_RESERVED] = 6
	L2_cache_stats_breakdown[CONST_ACC_R][MISS] = 1
	L2_cache_stats_breakdown[CONST_ACC_R][RESERVATION_FAIL] = 115
	L2_cache_stats_breakdown[CONST_ACC_R][SECTOR_MISS] = 1
	L2_cache_stats_breakdown[TEXTURE_ACC_R][HIT] = 0
	L2_cache_stats_breakdown[TEXTURE_ACC_R][HIT_RESERVED] = 0
	L2_cache_stats_breakdown[TEXTURE_ACC_R][MISS] = 0
	L2_cache_stats_breakdown[TEXTURE_ACC_R][RESERVATION_FAIL] = 0
	L2_cache_stats_breakdown[TEXTURE_ACC_R][SECTOR_MISS] = 0
	L2_cache_stats_breakdown[GLOBAL_ACC_W][HIT] = 323
	L2_cache_stats_breakdown[GLOBAL_ACC_W][HIT_RESERVED] = 0
	L2_cache_stats_breakdown[GLOBAL_ACC_W][MISS] = 1565
	L2_cache_stats_breakdown[GLOBAL_ACC_W][RESERVATION_FAIL] = 0
	L2_cache_stats_breakdown[GLOBAL_ACC_W][SECTOR_MISS] = 6860
	L2_cache_stats_breakdown[LOCAL_ACC_W][HIT] = 0
	L2_cache_stats_breakdown[LOCAL_ACC_W][HIT_RESERVED] = 0
	L2_cache_stats_breakdown[LOCAL_ACC_W][MISS] = 0
	L2_cache_stats_breakdown[LOCAL_ACC_W][RESERVATION_FAIL] = 0
	L2_cache_stats_breakdown[LOCAL_ACC_W][SECTOR_MISS] = 0
	L2_cache_stats_breakdown[L1_WRBK_ACC][HIT] = 0
	L2_cache_stats_breakdown[L1_WRBK_ACC][HIT_RESERVED] = 0
	L2_cache_stats_breakdown[L1_WRBK_ACC][MISS] = 0
	L2_cache_stats_breakdown[L1_WRBK_ACC][RESERVATION_FAIL] = 0
	L2_cache_stats_breakdown[L1_WRBK_ACC][SECTOR_MISS] = 0
	L2_cache_stats_breakdown[L2_WRBK_ACC][HIT] = 0
	L2_cache_stats_breakdown[L2_WRBK_ACC][HIT_RESERVED] = 0
	L2_cache_stats_breakdown[L2_WRBK_ACC][MISS] = 0
	L2_cache_stats_breakdown[L2_WRBK_ACC][RESERVATION_FAIL] = 0
	L2_cache_stats_breakdown[L2_WRBK_ACC][SECTOR_MISS] = 0
	L2_cache_stats_breakdown[INST_ACC_R][HIT] = 364
	L2_cache_stats_breakdown[INST_ACC_R][HIT_RESERVED] = 84
	L2_cache_stats_breakdown[INST_ACC_R][MISS] = 8
	L2_cache_stats_breakdown[INST_ACC_R][RESERVATION_FAIL] = 613
	L2_cache_stats_breakdown[INST_ACC_R][SECTOR_MISS] = 24
	L2_cache_stats_breakdown[L1_WR_ALLOC_R][HIT] = 0
	L2_cache_stats_breakdown[L1_WR_ALLOC_R][HIT_RESERVED] = 0
	L2_cache_stats_breakdown[L1_WR_ALLOC_R][MISS] = 0
	L2_cache_stats_breakdown[L1_WR_ALLOC_R][RESERVATION_FAIL] = 0
	L2_cache_stats_breakdown[L1_WR_ALLOC_R][SECTOR_MISS] = 0
	L2_cache_stats_breakdown[L2_WR_ALLOC_R][HIT] = 0
	L2_cache_stats_breakdown[L2_WR_ALLOC_R][HIT_RESERVED] = 0
	L2_cache_stats_breakdown[L2_WR_ALLOC_R][MISS] = 0
	L2_cache_stats_breakdown[L2_WR_ALLOC_R][RESERVATION_FAIL] = 0
	L2_cache_stats_breakdown[L2_WR_ALLOC_R][SECTOR_MISS] = 0
	L2_cache_stats_breakdown[GLOBAL_ACC_R][TOTAL_ACCESS] = 160648
	L2_cache_stats_breakdown[CONST_ACC_R][TOTAL_ACCESS] = 30
	L2_cache_stats_breakdown[GLOBAL_ACC_W][TOTAL_ACCESS] = 8748
	L2_cache_stats_breakdown[INST_ACC_R][TOTAL_ACCESS] = 480
L2_total_cache_reservation_fail_breakdown:
	L2_cache_stats_fail_breakdown[GLOBAL_ACC_R][MISS_QUEUE_FULL] = 37
	L2_cache_stats_fail_breakdown[CONST_ACC_R][MSHR_MERGE_ENRTY_FAIL] = 115
	L2_cache_stats_fail_breakdown[INST_ACC_R][MSHR_MERGE_ENRTY_FAIL] = 613
L2_cache_data_port_util = 0.015
L2_cache_fill_port_util = 0.091

icnt_total_pkts_mem_to_simt=169906
icnt_total_pkts_simt_to_mem=49045
LD_mem_lat_dist  0 0 0 0 0 0 0 0 0 0 0 0 0 0 0 0 0 0 0 0 0 0 0 0 0 0 0
ST_mem_lat_dist  0 0 0 0 0 0 0 0 0 0 0 0 0 0 0 0 0 0 0 0 0 0 0 0 0 0 0
----------------------------Interconnect-DETAILS--------------------------------
Class 0:
Packet latency average = 6.866
	minimum = 5
	maximum = 80
Network latency average = 6.78701
	minimum = 5
	maximum = 80
Slowest packet = 174586
Flit latency average = 6.74054
	minimum = 5
	maximum = 80
Slowest flit = 178930
Fragmentation average = 0
	minimum = 0
	maximum = 0
Injected packet rate average = 0.0679544
	minimum = 0.0243198 (at node 10)
	maximum = 0.122547 (at node 23)
Accepted packet rate average = 0.0679544
	minimum = 0.0310427 (at node 15)
	maximum = 0.119208 (at node 8)
Injected flit rate average = 0.0697225
	minimum = 0.0271173 (at node 11)
	maximum = 0.122547 (at node 23)
Accepted flit rate average= 0.0697225
	minimum = 0.0347877 (at node 15)
	maximum = 0.119208 (at node 8)
Injected packet length average = 1.02602
Accepted packet length average = 1.02602
Total in-flight flits = 0 (0 measured)
====== Overall Traffic Statistics ======
====== Traffic class 0 ======
Packet latency average = 6.70982 (5 samples)
	minimum = 5 (5 samples)
	maximum = 66.8 (5 samples)
Network latency average = 6.63166 (5 samples)
	minimum = 5 (5 samples)
	maximum = 66.8 (5 samples)
Flit latency average = 6.58119 (5 samples)
	minimum = 5 (5 samples)
	maximum = 66.8 (5 samples)
Fragmentation average = 0 (5 samples)
	minimum = 0 (5 samples)
	maximum = 0 (5 samples)
Injected packet rate average = 0.0681088 (5 samples)
	minimum = 0.0243527 (5 samples)
	maximum = 0.123285 (5 samples)
Accepted packet rate average = 0.0681088 (5 samples)
	minimum = 0.0311017 (5 samples)
	maximum = 0.123311 (5 samples)
Injected flit rate average = 0.0698326 (5 samples)
	minimum = 0.0271606 (5 samples)
	maximum = 0.123285 (5 samples)
Accepted flit rate average = 0.0698326 (5 samples)
	minimum = 0.034832 (5 samples)
	maximum = 0.123311 (5 samples)
Injected packet size average = 1.02531 (5 samples)
Accepted packet size average = 1.02531 (5 samples)
Hops average = 1 (5 samples)
----------------------------END-of-Interconnect-DETAILS-------------------------


gpgpu_simulation_time = 0 days, 0 hrs, 1 min, 34 sec (94 sec)
gpgpu_simulation_rate = 669293 (inst/sec)
gpgpu_simulation_rate = 1237 (cycle/sec)
gpgpu_silicon_slowdown = 565885x
GPGPU-Sim: synchronize waiting for inactive GPU simulation
GPGPU-Sim API: Stream Manager State
GPGPU-Sim: detected inactive GPU simulation thread
GPGPU-Sim: *** exit detected ***
