

        *** GPGPU-Sim Simulator Version 4.0.0  [build gpgpu-sim_git-commit-90ec3399763d7c8512cfe7dc193473086c38ca38_modified_0.0] ***


GPGPU-Sim PTX: simulation mode 0 (can change with PTX_SIM_MODE_FUNC environment variable:
               1=functional simulation only, 0=detailed performance simulator)
GPGPU-Sim PTX: overriding embedded ptx with ptx file (PTX_SIM_USE_PTX_FILE is set)
GPGPU-Sim: Configuration options:

-save_embedded_ptx                      0 # saves ptx files embedded in binary as <n>.ptx
-keep                                   0 # keep intermediate files created by GPGPU-Sim when interfacing with external programs
-gpgpu_ptx_save_converted_ptxplus                    0 # Saved converted ptxplus to a file
-gpgpu_occupancy_sm_number                   20 # The SM number to pass to ptxas when getting register usage for computing GPU occupancy. This parameter is required in the config.
-ptx_opcode_latency_int      4,13,4,5,145,32 # Opcode latencies for integers <ADD,MAX,MUL,MAD,DIV,SHFL>Default 1,1,19,25,145,32
-ptx_opcode_latency_fp          4,13,4,5,39 # Opcode latencies for single precision floating points <ADD,MAX,MUL,MAD,DIV>Default 1,1,1,1,30
-ptx_opcode_latency_dp         8,19,8,8,330 # Opcode latencies for double precision floating points <ADD,MAX,MUL,MAD,DIV>Default 8,8,8,8,335
-ptx_opcode_latency_sfu                    8 # Opcode latencies for SFU instructionsDefault 8
-ptx_opcode_latency_tesnor                   64 # Opcode latencies for Tensor instructionsDefault 64
-ptx_opcode_initiation_int          1,2,2,1,8,4 # Opcode initiation intervals for integers <ADD,MAX,MUL,MAD,DIV,SHFL>Default 1,1,4,4,32,4
-ptx_opcode_initiation_fp            1,2,1,1,4 # Opcode initiation intervals for single precision floating points <ADD,MAX,MUL,MAD,DIV>Default 1,1,1,1,5
-ptx_opcode_initiation_dp         8,16,8,8,130 # Opcode initiation intervals for double precision floating points <ADD,MAX,MUL,MAD,DIV>Default 8,8,8,8,130
-ptx_opcode_initiation_sfu                    8 # Opcode initiation intervals for sfu instructionsDefault 8
-ptx_opcode_initiation_tensor                   64 # Opcode initiation intervals for tensor instructionsDefault 64
-cdp_latency         7200,8000,100,12000,1600 # CDP API latency <cudaStreamCreateWithFlags, cudaGetParameterBufferV2_init_perWarp, cudaGetParameterBufferV2_perKernel, cudaLaunchDeviceV2_init_perWarp, cudaLaunchDevicV2_perKernel>Default 7200,8000,100,12000,1600
-network_mode                           1 # Interconnection network mode
-inter_config_file   config_fermi_islip.icnt # Interconnection network config file
-icnt_in_buffer_limit                   64 # in_buffer_limit
-icnt_out_buffer_limit                   64 # out_buffer_limit
-icnt_subnets                           2 # subnets
-icnt_arbiter_algo                      1 # arbiter_algo
-icnt_verbose                           0 # inct_verbose
-icnt_grant_cycles                      1 # grant_cycles
-gpgpu_ptx_use_cuobjdump                    1 # Use cuobjdump to extract ptx and sass from binaries
-gpgpu_experimental_lib_support                    0 # Try to extract code from cuda libraries [Broken because of unknown cudaGetExportTable]
-checkpoint_option                      0 #  checkpointing flag (0 = no checkpoint)
-checkpoint_kernel                      1 #  checkpointing during execution of which kernel (1- 1st kernel)
-checkpoint_CTA                         0 #  checkpointing after # of CTA (< less than total CTA)
-resume_option                          0 #  resume flag (0 = no resume)
-resume_kernel                          0 #  Resume from which kernel (1= 1st kernel)
-resume_CTA                             0 #  resume from which CTA 
-checkpoint_CTA_t                       0 #  resume from which CTA 
-checkpoint_insn_Y                      0 #  resume from which CTA 
-gpgpu_ptx_convert_to_ptxplus                    0 # Convert SASS (native ISA) to ptxplus and run ptxplus
-gpgpu_ptx_force_max_capability                   20 # Force maximum compute capability
-gpgpu_ptx_inst_debug_to_file                    0 # Dump executed instructions' debug information to file
-gpgpu_ptx_inst_debug_file       inst_debug.txt # Executed instructions' debug output file
-gpgpu_ptx_inst_debug_thread_uid                    1 # Thread UID for executed instructions' debug output
-gpgpu_simd_model                       1 # 1 = post-dominator
-gpgpu_shader_core_pipeline              1536:32 # shader core pipeline config, i.e., {<nthread>:<warpsize>}
-gpgpu_tex_cache:l1  N:4:128:24,L:R:m:N:L,T:128:4,128:2 # per-shader L1 texture cache  (READ-ONLY) config  {<nsets>:<bsize>:<assoc>,<rep>:<wr>:<alloc>:<wr_alloc>,<mshr>:<N>:<merge>,<mq>:<rf>}
-gpgpu_const_cache:l1 N:64:64:2,L:R:f:N:L,S:2:32,4 # per-shader L1 constant memory cache  (READ-ONLY) config  {<nsets>:<bsize>:<assoc>,<rep>:<wr>:<alloc>:<wr_alloc>,<mshr>:<N>:<merge>,<mq>} 
-gpgpu_cache:il1     N:4:128:4,L:R:f:N:L,S:2:32,4 # shader L1 instruction cache config  {<nsets>:<bsize>:<assoc>,<rep>:<wr>:<alloc>:<wr_alloc>,<mshr>:<N>:<merge>,<mq>} 
-gpgpu_cache:dl1     N:32:128:4,L:L:m:N:H,S:64:8,8 # per-shader L1 data cache config  {<nsets>:<bsize>:<assoc>,<rep>:<wr>:<alloc>:<wr_alloc>,<mshr>:<N>:<merge>,<mq> | none}
-gpgpu_l1_banks                         1 # The number of L1 cache banks
-gpgpu_l1_banks_byte_interleaving                   32 # l1 banks byte interleaving granularity
-gpgpu_l1_banks_hashing_function                    0 # l1 banks hashing function
-gpgpu_l1_latency                      35 # L1 Hit Latency
-gpgpu_smem_latency                    26 # smem Latency
-gpgpu_cache:dl1PrefL1                 none # per-shader L1 data cache config  {<nsets>:<bsize>:<assoc>,<rep>:<wr>:<alloc>:<wr_alloc>,<mshr>:<N>:<merge>,<mq> | none}
-gpgpu_cache:dl1PrefShared                 none # per-shader L1 data cache config  {<nsets>:<bsize>:<assoc>,<rep>:<wr>:<alloc>:<wr_alloc>,<mshr>:<N>:<merge>,<mq> | none}
-gpgpu_gmem_skip_L1D                    0 # global memory access skip L1D cache (implements -Xptxas -dlcm=cg, default=no skip)
-gpgpu_perfect_mem                      0 # enable perfect memory mode (no cache miss)
-n_regfile_gating_group                    4 # group of lanes that should be read/written together)
-gpgpu_clock_gated_reg_file                    0 # enable clock gated reg file for power calculations
-gpgpu_clock_gated_lanes                    0 # enable clock gated lanes for power calculations
-gpgpu_shader_registers                32768 # Number of registers per shader core. Limits number of concurrent CTAs. (default 8192)
-gpgpu_registers_per_block                 8192 # Maximum number of registers per CTA. (default 8192)
-gpgpu_ignore_resources_limitation                    0 # gpgpu_ignore_resources_limitation (default 0)
-gpgpu_shader_cta                       8 # Maximum number of concurrent CTAs in shader (default 8)
-gpgpu_num_cta_barriers                   16 # Maximum number of named barriers per CTA (default 16)
-gpgpu_n_clusters                      15 # number of processing clusters
-gpgpu_n_cores_per_cluster                    1 # number of simd cores per cluster
-gpgpu_n_cluster_ejection_buffer_size                   32 # number of packets in ejection buffer
-gpgpu_n_ldst_response_buffer_size                    2 # number of response packets in ld/st unit ejection buffer
-gpgpu_shmem_per_block                49152 # Size of shared memory per thread block or CTA (default 48kB)
-gpgpu_shmem_size                   49152 # Size of shared memory per shader core (default 16kB)
-gpgpu_adaptive_cache_config                    0 # adaptive_cache_config
-gpgpu_shmem_sizeDefault                49152 # Size of shared memory per shader core (default 16kB)
-gpgpu_shmem_size_PrefL1                16384 # Size of shared memory per shader core (default 16kB)
-gpgpu_shmem_size_PrefShared                16384 # Size of shared memory per shader core (default 16kB)
-gpgpu_shmem_num_banks                   32 # Number of banks in the shared memory in each shader core (default 16)
-gpgpu_shmem_limited_broadcast                    0 # Limit shared memory to do one broadcast per cycle (default on)
-gpgpu_shmem_warp_parts                    1 # Number of portions a warp is divided into for shared memory bank conflict check 
-gpgpu_mem_unit_ports                    1 # The number of memory transactions allowed per core cycle
-gpgpu_shmem_warp_parts                    1 # Number of portions a warp is divided into for shared memory bank conflict check 
-gpgpu_warpdistro_shader                   -1 # Specify which shader core to collect the warp size distribution from
-gpgpu_warp_issue_shader                    0 # Specify which shader core to collect the warp issue distribution from
-gpgpu_local_mem_map                    1 # Mapping from local memory space address to simulated GPU physical address space (default = enabled)
-gpgpu_num_reg_banks                   16 # Number of register banks (default = 8)
-gpgpu_reg_bank_use_warp_id                    0 # Use warp ID in mapping registers to banks (default = off)
-gpgpu_sub_core_model                    0 # Sub Core Volta/Pascal model (default = off)
-gpgpu_enable_specialized_operand_collector                    1 # enable_specialized_operand_collector
-gpgpu_operand_collector_num_units_sp                    6 # number of collector units (default = 4)
-gpgpu_operand_collector_num_units_dp                    0 # number of collector units (default = 0)
-gpgpu_operand_collector_num_units_sfu                    8 # number of collector units (default = 4)
-gpgpu_operand_collector_num_units_int                    0 # number of collector units (default = 0)
-gpgpu_operand_collector_num_units_tensor_core                    4 # number of collector units (default = 4)
-gpgpu_operand_collector_num_units_mem                    2 # number of collector units (default = 2)
-gpgpu_operand_collector_num_units_gen                    0 # number of collector units (default = 0)
-gpgpu_operand_collector_num_in_ports_sp                    2 # number of collector unit in ports (default = 1)
-gpgpu_operand_collector_num_in_ports_dp                    0 # number of collector unit in ports (default = 0)
-gpgpu_operand_collector_num_in_ports_sfu                    1 # number of collector unit in ports (default = 1)
-gpgpu_operand_collector_num_in_ports_int                    0 # number of collector unit in ports (default = 0)
-gpgpu_operand_collector_num_in_ports_tensor_core                    1 # number of collector unit in ports (default = 1)
-gpgpu_operand_collector_num_in_ports_mem                    1 # number of collector unit in ports (default = 1)
-gpgpu_operand_collector_num_in_ports_gen                    0 # number of collector unit in ports (default = 0)
-gpgpu_operand_collector_num_out_ports_sp                    2 # number of collector unit in ports (default = 1)
-gpgpu_operand_collector_num_out_ports_dp                    0 # number of collector unit in ports (default = 0)
-gpgpu_operand_collector_num_out_ports_sfu                    1 # number of collector unit in ports (default = 1)
-gpgpu_operand_collector_num_out_ports_int                    0 # number of collector unit in ports (default = 0)
-gpgpu_operand_collector_num_out_ports_tensor_core                    1 # number of collector unit in ports (default = 1)
-gpgpu_operand_collector_num_out_ports_mem                    1 # number of collector unit in ports (default = 1)
-gpgpu_operand_collector_num_out_ports_gen                    0 # number of collector unit in ports (default = 0)
-gpgpu_coalesce_arch                   20 # Coalescing arch (GT200 = 13, Fermi = 20)
-gpgpu_num_sched_per_core                    2 # Number of warp schedulers per core
-gpgpu_max_insn_issue_per_warp                    1 # Max number of instructions that can be issued per warp in one cycle by scheduler (either 1 or 2)
-gpgpu_dual_issue_diff_exec_units                    1 # should dual issue use two different execution unit resources (Default = 1)
-gpgpu_simt_core_sim_order                    1 # Select the simulation order of cores in a cluster (0=Fix, 1=Round-Robin)
-gpgpu_pipeline_widths 2,0,0,1,1,2,0,0,1,1,2 # Pipeline widths ID_OC_SP,ID_OC_DP,ID_OC_INT,ID_OC_SFU,ID_OC_MEM,OC_EX_SP,OC_EX_DP,OC_EX_INT,OC_EX_SFU,OC_EX_MEM,EX_WB,ID_OC_TENSOR_CORE,OC_EX_TENSOR_CORE
-gpgpu_tensor_core_avail                    0 # Tensor Core Available (default=0)
-gpgpu_num_sp_units                     2 # Number of SP units (default=1)
-gpgpu_num_dp_units                     0 # Number of DP units (default=0)
-gpgpu_num_int_units                    0 # Number of INT units (default=0)
-gpgpu_num_sfu_units                    1 # Number of SF units (default=1)
-gpgpu_num_tensor_core_units                    0 # Number of tensor_core units (default=1)
-gpgpu_num_mem_units                    1 # Number if ldst units (default=1) WARNING: not hooked up to anything
-gpgpu_scheduler     two_level_active:6:0:1 # Scheduler configuration: < lrr | gto | two_level_active > If two_level_active:<num_active_warps>:<inner_prioritization>:<outer_prioritization>For complete list of prioritization values see shader.h enum scheduler_prioritization_typeDefault: gto
-gpgpu_concurrent_kernel_sm                    0 # Support concurrent kernels on a SM (default = disabled)
-gpgpu_perfect_inst_const_cache                    0 # perfect inst and const cache mode, so all inst and const hits in the cache(default = disabled)
-gpgpu_inst_fetch_throughput                    1 # the number of fetched intruction per warp each cycle
-gpgpu_reg_file_port_throughput                    1 # the number ports of the register file
-specialized_unit_1         0,4,4,4,4,BRA # specialized unit config {<enabled>,<num_units>:<latency>:<initiation>,<ID_OC_SPEC>:<OC_EX_SPEC>,<NAME>}
-specialized_unit_2         0,4,4,4,4,BRA # specialized unit config {<enabled>,<num_units>:<latency>:<initiation>,<ID_OC_SPEC>:<OC_EX_SPEC>,<NAME>}
-specialized_unit_3         0,4,4,4,4,BRA # specialized unit config {<enabled>,<num_units>:<latency>:<initiation>,<ID_OC_SPEC>:<OC_EX_SPEC>,<NAME>}
-specialized_unit_4         0,4,4,4,4,BRA # specialized unit config {<enabled>,<num_units>:<latency>:<initiation>,<ID_OC_SPEC>:<OC_EX_SPEC>,<NAME>}
-specialized_unit_5         0,4,4,4,4,BRA # specialized unit config {<enabled>,<num_units>:<latency>:<initiation>,<ID_OC_SPEC>:<OC_EX_SPEC>,<NAME>}
-specialized_unit_6         0,4,4,4,4,BRA # specialized unit config {<enabled>,<num_units>:<latency>:<initiation>,<ID_OC_SPEC>:<OC_EX_SPEC>,<NAME>}
-specialized_unit_7         0,4,4,4,4,BRA # specialized unit config {<enabled>,<num_units>:<latency>:<initiation>,<ID_OC_SPEC>:<OC_EX_SPEC>,<NAME>}
-specialized_unit_8         0,4,4,4,4,BRA # specialized unit config {<enabled>,<num_units>:<latency>:<initiation>,<ID_OC_SPEC>:<OC_EX_SPEC>,<NAME>}
-gpgpu_perf_sim_memcpy                    1 # Fill the L2 cache on memcpy
-gpgpu_simple_dram_model                    0 # simple_dram_model with fixed latency and BW
-gpgpu_dram_scheduler                    1 # 0 = fifo, 1 = FR-FCFS (defaul)
-gpgpu_dram_partition_queues          64:64:64:64 # i2$:$2d:d2$:$2i
-l2_ideal                               0 # Use a ideal L2 cache that always hit
-gpgpu_cache:dl2     S:64:128:8,L:B:m:L:L,A:256:4,4:0,32 # unified banked L2 data cache config  {<nsets>:<bsize>:<assoc>,<rep>:<wr>:<alloc>:<wr_alloc>,<mshr>:<N>:<merge>,<mq>}
-gpgpu_cache:dl2_texture_only                    0 # L2 cache used for texture only
-gpgpu_n_mem                            6 # number of memory modules (e.g. memory controllers) in gpu
-gpgpu_n_sub_partition_per_mchannel                    2 # number of memory subpartition in each memory module
-gpgpu_n_mem_per_ctrlr                    2 # number of memory chips per memory controller
-gpgpu_memlatency_stat                   14 # track and display latency statistics 0x2 enables MC, 0x4 enables queue logs
-gpgpu_frfcfs_dram_sched_queue_size                   64 # 0 = unlimited (default); # entries per chip
-gpgpu_dram_return_queue_size                  116 # 0 = unlimited (default); # entries per chip
-gpgpu_dram_buswidth                    4 # default = 4 bytes (8 bytes per cycle at DDR)
-gpgpu_dram_burst_length                    8 # Burst length of each DRAM request (default = 4 data bus cycle)
-dram_data_command_freq_ratio                    4 # Frequency ratio between DRAM data bus and command bus (default = 2 times, i.e. DDR)
-gpgpu_dram_timing_opt nbk=16:CCD=2:RRD=6:RCD=12:RAS=28:RP=12:RC=40: CL=12:WL=4:CDLR=5:WR=12:nbkgrp=4:CCDL=3:RTPL=2 # DRAM timing parameters = {nbk:tCCD:tRRD:tRCD:tRAS:tRP:tRC:CL:WL:tCDLR:tWR:nbkgrp:tCCDL:tRTPL}
-gpgpu_l2_rop_latency                  120 # ROP queue latency (default 85)
-dram_latency                         100 # DRAM latency (default 30)
-dram_dual_bus_interface                    0 # dual_bus_interface (default = 0) 
-dram_bnk_indexing_policy                    0 # dram_bnk_indexing_policy (0 = normal indexing, 1 = Xoring with the higher bits) (Default = 0)
-dram_bnkgrp_indexing_policy                    1 # dram_bnkgrp_indexing_policy (0 = take higher bits, 1 = take lower bits) (Default = 0)
-dram_seperate_write_queue_enable                    0 # Seperate_Write_Queue_Enable
-dram_write_queue_size             32:28:16 # Write_Queue_Size
-dram_elimnate_rw_turnaround                    0 # elimnate_rw_turnaround i.e set tWTR and tRTW = 0
-icnt_flit_size                        40 # icnt_flit_size
-gpgpu_mem_addr_mapping dramid@8;00000000.00000000.00000000.00000000.0000RRRR.RRRRRRRR.BBBCCCCB.CCSSSSSS # mapping memory address to dram model {dramid@<start bit>;<memory address map>}
-gpgpu_mem_addr_test                    0 # run sweep test to check address mapping for aliased address
-gpgpu_mem_address_mask                    1 # 0 = old addressing mask, 1 = new addressing mask, 2 = new add. mask + flipped bank sel and chip sel bits
-gpgpu_memory_partition_indexing                    0 # 0 = no indexing, 1 = bitwise xoring, 2 = IPoly, 3 = custom indexing
-gpuwattch_xml_file  gpuwattch_gtx480.xml # GPUWattch XML file
-power_simulation_enabled                    1 # Turn on power simulator (1=On, 0=Off)
-power_per_cycle_dump                    0 # Dump detailed power output each cycle
-power_trace_enabled                    0 # produce a file for the power trace (1=On, 0=Off)
-power_trace_zlevel                     6 # Compression level of the power trace output log (0=no comp, 9=highest)
-steady_power_levels_enabled                    0 # produce a file for the steady power levels (1=On, 0=Off)
-steady_state_definition                  8:4 # allowed deviation:number of samples
-gpgpu_max_cycle                        0 # terminates gpu simulation early (0 = no limit)
-gpgpu_max_insn                         0 # terminates gpu simulation early (0 = no limit)
-gpgpu_max_cta                          0 # terminates gpu simulation early (0 = no limit)
-gpgpu_max_completed_cta                    0 # terminates gpu simulation early (0 = no limit)
-gpgpu_runtime_stat                   500 # display runtime statistics such as dram utilization {<freq>:<flag>}
-liveness_message_freq                    1 # Minimum number of seconds between simulation liveness messages (0 = always print)
-gpgpu_compute_capability_major                    2 # Major compute capability version number
-gpgpu_compute_capability_minor                    0 # Minor compute capability version number
-gpgpu_flush_l1_cache                    1 # Flush L1 cache at the end of each kernel call
-gpgpu_flush_l2_cache                    0 # Flush L2 cache at the end of each kernel call
-gpgpu_deadlock_detect                    1 # Stop the simulation at deadlock (1=on (default), 0=off)
-gpgpu_ptx_instruction_classification                    0 # if enabled will classify ptx instruction types per kernel (Max 255 kernels now)
-gpgpu_ptx_sim_mode                     0 # Select between Performance (default) or Functional simulation (1)
-gpgpu_clock_domains 700.0:700.0:700.0:924.0 # Clock Domain Frequencies in MhZ {<Core Clock>:<ICNT Clock>:<L2 Clock>:<DRAM Clock>}
-gpgpu_max_concurrent_kernel                    8 # maximum kernels that can run concurrently on GPU
-gpgpu_cflog_interval                    0 # Interval between each snapshot in control flow logger
-visualizer_enabled                     0 # Turn on visualizer output (1=On, 0=Off)
-visualizer_outputfile                 NULL # Specifies the output log file for visualizer
-visualizer_zlevel                      6 # Compression level of the visualizer output log (0=no comp, 9=highest)
-gpgpu_stack_size_limit                 1024 # GPU thread stack size
-gpgpu_heap_size_limit              8388608 # GPU malloc heap size 
-gpgpu_runtime_sync_depth_limit                    2 # GPU device runtime synchronize depth
-gpgpu_runtime_pending_launch_count_limit                 2048 # GPU device runtime pending launch count
-trace_enabled                          0 # Turn on traces
-trace_components                    none # comma seperated list of traces to enable. Complete list found in trace_streams.tup. Default none
-trace_sampling_core                    0 # The core which is printed using CORE_DPRINTF. Default 0
-trace_sampling_memory_partition                   -1 # The memory partition which is printed using MEMPART_DPRINTF. Default -1 (i.e. all)
-enable_ptx_file_line_stats                    1 # Turn on PTX source line statistic profiling. (1 = On)
-ptx_line_stats_filename gpgpu_inst_stats.txt # Output file for PTX source line statistics.
-gpgpu_kernel_launch_latency                    0 # Kernel launch latency in cycles. Default: 0
-gpgpu_cdp_enabled                      0 # Turn on CDP
-gpgpu_TB_launch_latency                    0 # thread block launch latency in cycles. Default: 0
DRAM Timing Options:
nbk                                    16 # number of banks
CCD                                     2 # column to column delay
RRD                                     6 # minimal delay between activation of rows in different banks
RCD                                    12 # row to column delay
RAS                                    28 # time needed to activate row
RP                                     12 # time needed to precharge (deactivate) row
RC                                     40 # row cycle time
CDLR                                    5 # switching from write to read (changes tWTR)
WR                                     12 # last data-in to row precharge
CL                                     12 # CAS latency
WL                                      4 # Write latency
nbkgrp                                  4 # number of bank groups
CCDL                                    3 # column to column delay between accesses to different bank groups
RTPL                                    2 # read to precharge delay between accesses to different bank groups
Total number of memory sub partition = 12
addr_dec_mask[CHIP]  = 0000000000000000 	high:64 low:0
addr_dec_mask[BK]    = 000000000000e100 	high:16 low:8
addr_dec_mask[ROW]   = 000000000fff0000 	high:28 low:16
addr_dec_mask[COL]   = 0000000000001eff 	high:13 low:0
addr_dec_mask[BURST] = 000000000000003f 	high:6 low:0
sub_partition_id_mask = 0000000000000100
GPGPU-Sim uArch: clock freqs: 700000000.000000:700000000.000000:700000000.000000:924000000.000000
GPGPU-Sim uArch: clock periods: 0.00000000142857142857:0.00000000142857142857:0.00000000142857142857:0.00000000108225108225
*** Initializing Memory Statistics ***
GPGPU-Sim uArch: interconnect node map (shaderID+MemID to icntID)
GPGPU-Sim uArch: Memory nodes ID start from index: 15
GPGPU-Sim uArch:    0   1   2   3   4
GPGPU-Sim uArch:    5   6   7   8   9
GPGPU-Sim uArch:   10  11  12  13  14
GPGPU-Sim uArch:   15  16  17  18  19
GPGPU-Sim uArch:   20  21  22  23  24
GPGPU-Sim uArch:   25  26
GPGPU-Sim uArch: interconnect node reverse map (icntID to shaderID+MemID)
GPGPU-Sim uArch: Memory nodes start from ID: 15
GPGPU-Sim uArch:    0   1   2   3   4
GPGPU-Sim uArch:    5   6   7   8   9
GPGPU-Sim uArch:   10  11  12  13  14
GPGPU-Sim uArch:   15  16  17  18  19
GPGPU-Sim uArch:   20  21  22  23  24
GPGPU-Sim uArch:   25  26
93fb3cdebbbc52a74ede04e10abd0e97  /home/ishan/COA/Lab4/gpu-rodinia/cuda/pathfinder/a.out
Extracting PTX file and ptxas options    1: a.1.sm_52.ptx -arch=sm_52
GPGPU-Sim uArch: performance model initialization complete.
self exe links to: /home/ishan/COA/Lab4/gpu-rodinia/cuda/pathfinder/a.out
self exe links to: /home/ishan/COA/Lab4/gpu-rodinia/cuda/pathfinder/a.out
11.0
GPGPU-Sim PTX: __cudaRegisterFatBinary, fat_cubin_handle = 1, filename=default
self exe links to: /home/ishan/COA/Lab4/gpu-rodinia/cuda/pathfinder/a.out
Running md5sum using "md5sum /home/ishan/COA/Lab4/gpu-rodinia/cuda/pathfinder/a.out "
self exe links to: /home/ishan/COA/Lab4/gpu-rodinia/cuda/pathfinder/a.out
Extracting specific PTX file named a.1.sm_52.ptx 
GPGPU-Sim PTX: __cudaRegisterFunction _Z14dynproc_kerneliPiS_S_iiii : hostFun 0x0x564e42e96ba4, fat_cubin_handle = 1
GPGPU-Sim PTX: Parsing a.1.sm_52.ptx
GPGPU-Sim PTX: allocating shared region for "_ZZ14dynproc_kerneliPiS_S_iiiiE4prev" from 0x0 to 0x400 (shared memory space)
GPGPU-Sim PTX: allocating shared region for "_ZZ14dynproc_kerneliPiS_S_iiiiE6result" from 0x400 to 0x800 (shared memory space)
GPGPU-Sim PTX: instruction assembly for function '_Z14dynproc_kerneliPiS_S_iiii'...   done.
GPGPU-Sim PTX: finished parsing EMBEDDED .ptx file a.1.sm_52.ptx
GPGPU-Sim PTX: loading globals with explicit initializers... 
GPGPU-Sim PTX: finished loading globals (0 bytes total).
GPGPU-Sim PTX: loading constants with explicit initializers...  done.
GPGPU-Sim PTX: Loading PTXInfo from a.1.sm_52.ptx
GPGPU-Sim PTX: Kernel '_Z14dynproc_kerneliPiS_S_iiii' : regs=18, lmem=0, smem=2048, cmem=368
pyramidHeight: 20
gridSize: [10000]
border:[20]
blockSize: 256
blockGrid:[47]
targetBlock:[216]
GPGPU-Sim PTX: Setting up arguments for 4 bytes starting at 0x7fff602c888c..
GPGPU-Sim PTX: Setting up arguments for 8 bytes starting at 0x7fff602c8880..
GPGPU-Sim PTX: Setting up arguments for 8 bytes starting at 0x7fff602c8878..
GPGPU-Sim PTX: Setting up arguments for 8 bytes starting at 0x7fff602c8870..
GPGPU-Sim PTX: Setting up arguments for 4 bytes starting at 0x7fff602c8888..
GPGPU-Sim PTX: Setting up arguments for 4 bytes starting at 0x7fff602c886c..
GPGPU-Sim PTX: Setting up arguments for 4 bytes starting at 0x7fff602c8920..
GPGPU-Sim PTX: Setting up arguments for 4 bytes starting at 0x7fff602c8928..

GPGPU-Sim PTX: cudaLaunch for 0x0x564e42e96ba4 (mode=performance simulation) on stream 0
GPGPU-Sim PTX: finding reconvergence points for '_Z14dynproc_kerneliPiS_S_iiii'...
GPGPU-Sim PTX: Finding dominators for '_Z14dynproc_kerneliPiS_S_iiii'...
GPGPU-Sim PTX: Finding immediate dominators for '_Z14dynproc_kerneliPiS_S_iiii'...
GPGPU-Sim PTX: Finding postdominators for '_Z14dynproc_kerneliPiS_S_iiii'...
GPGPU-Sim PTX: Finding immediate postdominators for '_Z14dynproc_kerneliPiS_S_iiii'...
GPGPU-Sim PTX: pre-decoding instructions for '_Z14dynproc_kerneliPiS_S_iiii'...
GPGPU-Sim PTX: reconvergence points for _Z14dynproc_kerneliPiS_S_iiii...
GPGPU-Sim PTX:  1 (potential) branch divergence @  PC=0x0c0 (a.1.sm_52.ptx:61) @!%p3 bra BB0_2;
GPGPU-Sim PTX:    immediate post dominator      @  PC=0x110 (a.1.sm_52.ptx:75) bar.sync 0;
GPGPU-Sim PTX:  2 (potential) branch divergence @  PC=0x0c8 (a.1.sm_52.ptx:62) bra.uni BB0_1;
GPGPU-Sim PTX:    immediate post dominator      @  PC=0x0d0 (a.1.sm_52.ptx:65) cvta.to.global.u64 %rd4, %rd2;
GPGPU-Sim PTX:  3 (potential) branch divergence @  PC=0x120 (a.1.sm_52.ptx:77) @%p4 bra BB0_10;
GPGPU-Sim PTX:    immediate post dominator      @  PC=0x338 (a.1.sm_52.ptx:157) and.b16 %rs6, %rs8, 255;
GPGPU-Sim PTX:  4 (potential) branch divergence @  PC=0x208 (a.1.sm_52.ptx:109) @!%p12 bra BB0_6;
GPGPU-Sim PTX:    immediate post dominator      @  PC=0x2b8 (a.1.sm_52.ptx:135) bar.sync 0;
GPGPU-Sim PTX:  5 (potential) branch divergence @  PC=0x210 (a.1.sm_52.ptx:110) bra.uni BB0_5;
GPGPU-Sim PTX:    immediate post dominator      @  PC=0x218 (a.1.sm_52.ptx:113) ld.shared.u32 %r70, [%r2];
GPGPU-Sim PTX:  6 (potential) branch divergence @  PC=0x2c8 (a.1.sm_52.ptx:137) @%p15 bra BB0_10;
GPGPU-Sim PTX:    immediate post dominator      @  PC=0x338 (a.1.sm_52.ptx:157) and.b16 %rs6, %rs8, 255;
GPGPU-Sim PTX:  7 (potential) branch divergence @  PC=0x2d8 (a.1.sm_52.ptx:140) @%p16 bra BB0_9;
GPGPU-Sim PTX:    immediate post dominator      @  PC=0x310 (a.1.sm_52.ptx:150) bar.sync 0;
GPGPU-Sim PTX:  8 (potential) branch divergence @  PC=0x330 (a.1.sm_52.ptx:154) @%p17 bra BB0_4;
GPGPU-Sim PTX:    immediate post dominator      @  PC=0x338 (a.1.sm_52.ptx:157) and.b16 %rs6, %rs8, 255;
GPGPU-Sim PTX:  9 (potential) branch divergence @  PC=0x348 (a.1.sm_52.ptx:159) @%p18 bra BB0_12;
GPGPU-Sim PTX:    immediate post dominator      @  PC=0x390 (a.1.sm_52.ptx:171) ret;
GPGPU-Sim PTX: ... end of reconvergence points for _Z14dynproc_kerneliPiS_S_iiii
GPGPU-Sim PTX: ... done pre-decoding instructions for '_Z14dynproc_kerneliPiS_S_iiii'.
GPGPU-Sim PTX: pushing kernel '_Z14dynproc_kerneliPiS_S_iiii' to stream 0, gridDim= (47,1,1) blockDim = (256,1,1) 
GPGPU-Sim uArch: Shader 0 bind to kernel 1 '_Z14dynproc_kerneliPiS_S_iiii'
GPGPU-Sim uArch: CTA/core = 6, limited by: threads regs
GPGPU-Sim uArch: Shader 1 bind to kernel 1 '_Z14dynproc_kerneliPiS_S_iiii'
GPGPU-Sim uArch: Shader 2 bind to kernel 1 '_Z14dynproc_kerneliPiS_S_iiii'
GPGPU-Sim uArch: Shader 3 bind to kernel 1 '_Z14dynproc_kerneliPiS_S_iiii'
GPGPU-Sim uArch: Shader 4 bind to kernel 1 '_Z14dynproc_kerneliPiS_S_iiii'
GPGPU-Sim uArch: Shader 5 bind to kernel 1 '_Z14dynproc_kerneliPiS_S_iiii'
GPGPU-Sim uArch: Shader 6 bind to kernel 1 '_Z14dynproc_kerneliPiS_S_iiii'
GPGPU-Sim uArch: Shader 7 bind to kernel 1 '_Z14dynproc_kerneliPiS_S_iiii'
GPGPU-Sim uArch: Shader 8 bind to kernel 1 '_Z14dynproc_kerneliPiS_S_iiii'
GPGPU-Sim uArch: Shader 9 bind to kernel 1 '_Z14dynproc_kerneliPiS_S_iiii'
GPGPU-Sim uArch: Shader 10 bind to kernel 1 '_Z14dynproc_kerneliPiS_S_iiii'
GPGPU-Sim uArch: Shader 11 bind to kernel 1 '_Z14dynproc_kerneliPiS_S_iiii'
GPGPU-Sim uArch: Shader 12 bind to kernel 1 '_Z14dynproc_kerneliPiS_S_iiii'
GPGPU-Sim uArch: Shader 13 bind to kernel 1 '_Z14dynproc_kerneliPiS_S_iiii'
GPGPU-Sim uArch: Shader 14 bind to kernel 1 '_Z14dynproc_kerneliPiS_S_iiii'
Destroy streams for kernel 1: size 0
kernel_name = _Z14dynproc_kerneliPiS_S_iiii 
kernel_launch_uid = 1 
gpu_sim_cycle = 27738
gpu_sim_insn = 12710760
gpu_ipc =     458.2436
gpu_tot_sim_cycle = 27738
gpu_tot_sim_insn = 12710760
gpu_tot_ipc =     458.2436
gpu_tot_issued_cta = 47
gpu_occupancy = 51.3657% 
gpu_tot_occupancy = 51.3657% 
max_total_param_size = 0
gpu_stall_dramfull = 121
gpu_stall_icnt2sh    = 0
partiton_level_parallism =       0.3220
partiton_level_parallism_total  =       0.3220
partiton_level_parallism_util =       1.2831
partiton_level_parallism_util_total  =       1.2831
L2_BW  =      28.0804 GB/Sec
L2_BW_total  =      28.0804 GB/Sec
gpu_total_sim_rate=635538

========= Core cache stats =========
L1I_cache:
	L1I_total_cache_accesses = 225037
	L1I_total_cache_misses = 1490
	L1I_total_cache_miss_rate = 0.0066
	L1I_total_cache_pending_hits = 0
	L1I_total_cache_reservation_fails = 0
L1D_cache:
	L1D_cache_core[0]: Access = 1336, Miss = 748, Miss_rate = 0.560, Pending_hits = 542, Reservation_fails = 0
	L1D_cache_core[1]: Access = 1123, Miss = 640, Miss_rate = 0.570, Pending_hits = 427, Reservation_fails = 0
	L1D_cache_core[2]: Access = 1011, Miss = 570, Miss_rate = 0.564, Pending_hits = 427, Reservation_fails = 0
	L1D_cache_core[3]: Access = 1011, Miss = 570, Miss_rate = 0.564, Pending_hits = 429, Reservation_fails = 0
	L1D_cache_core[4]: Access = 1011, Miss = 570, Miss_rate = 0.564, Pending_hits = 436, Reservation_fails = 0
	L1D_cache_core[5]: Access = 1011, Miss = 570, Miss_rate = 0.564, Pending_hits = 425, Reservation_fails = 0
	L1D_cache_core[6]: Access = 1011, Miss = 570, Miss_rate = 0.564, Pending_hits = 406, Reservation_fails = 0
	L1D_cache_core[7]: Access = 1011, Miss = 570, Miss_rate = 0.564, Pending_hits = 415, Reservation_fails = 0
	L1D_cache_core[8]: Access = 1011, Miss = 570, Miss_rate = 0.564, Pending_hits = 432, Reservation_fails = 0
	L1D_cache_core[9]: Access = 1011, Miss = 570, Miss_rate = 0.564, Pending_hits = 432, Reservation_fails = 0
	L1D_cache_core[10]: Access = 1011, Miss = 570, Miss_rate = 0.564, Pending_hits = 421, Reservation_fails = 0
	L1D_cache_core[11]: Access = 1011, Miss = 570, Miss_rate = 0.564, Pending_hits = 419, Reservation_fails = 0
	L1D_cache_core[12]: Access = 1011, Miss = 570, Miss_rate = 0.564, Pending_hits = 424, Reservation_fails = 0
	L1D_cache_core[13]: Access = 1011, Miss = 570, Miss_rate = 0.564, Pending_hits = 433, Reservation_fails = 0
	L1D_cache_core[14]: Access = 1011, Miss = 570, Miss_rate = 0.564, Pending_hits = 433, Reservation_fails = 0
	L1D_total_cache_accesses = 15602
	L1D_total_cache_misses = 8798
	L1D_total_cache_miss_rate = 0.5639
	L1D_total_cache_pending_hits = 6501
	L1D_total_cache_reservation_fails = 0
	L1D_cache_data_port_util = 0.001
	L1D_cache_fill_port_util = 0.023
L1C_cache:
	L1C_total_cache_accesses = 2632
	L1C_total_cache_misses = 480
	L1C_total_cache_miss_rate = 0.1824
	L1C_total_cache_pending_hits = 0
	L1C_total_cache_reservation_fails = 3358
L1T_cache:
	L1T_total_cache_accesses = 0
	L1T_total_cache_misses = 0
	L1T_total_cache_pending_hits = 0
	L1T_total_cache_reservation_fails = 0

Total_core_cache_stats:
	Total_core_cache_stats_breakdown[GLOBAL_ACC_R][HIT] = 303
	Total_core_cache_stats_breakdown[GLOBAL_ACC_R][HIT_RESERVED] = 6501
	Total_core_cache_stats_breakdown[GLOBAL_ACC_R][MISS] = 8126
	Total_core_cache_stats_breakdown[GLOBAL_ACC_R][RESERVATION_FAIL] = 0
	Total_core_cache_stats_breakdown[GLOBAL_ACC_R][SECTOR_MISS] = 0
	Total_core_cache_stats_breakdown[LOCAL_ACC_R][HIT] = 0
	Total_core_cache_stats_breakdown[LOCAL_ACC_R][HIT_RESERVED] = 0
	Total_core_cache_stats_breakdown[LOCAL_ACC_R][MISS] = 0
	Total_core_cache_stats_breakdown[LOCAL_ACC_R][RESERVATION_FAIL] = 0
	Total_core_cache_stats_breakdown[LOCAL_ACC_R][SECTOR_MISS] = 0
	Total_core_cache_stats_breakdown[CONST_ACC_R][HIT] = 2152
	Total_core_cache_stats_breakdown[CONST_ACC_R][HIT_RESERVED] = 0
	Total_core_cache_stats_breakdown[CONST_ACC_R][MISS] = 480
	Total_core_cache_stats_breakdown[CONST_ACC_R][RESERVATION_FAIL] = 3358
	Total_core_cache_stats_breakdown[CONST_ACC_R][SECTOR_MISS] = 0
	Total_core_cache_stats_breakdown[TEXTURE_ACC_R][HIT] = 0
	Total_core_cache_stats_breakdown[TEXTURE_ACC_R][HIT_RESERVED] = 0
	Total_core_cache_stats_breakdown[TEXTURE_ACC_R][MISS] = 0
	Total_core_cache_stats_breakdown[TEXTURE_ACC_R][RESERVATION_FAIL] = 0
	Total_core_cache_stats_breakdown[TEXTURE_ACC_R][SECTOR_MISS] = 0
	Total_core_cache_stats_breakdown[GLOBAL_ACC_W][HIT] = 0
	Total_core_cache_stats_breakdown[GLOBAL_ACC_W][HIT_RESERVED] = 0
	Total_core_cache_stats_breakdown[GLOBAL_ACC_W][MISS] = 672
	Total_core_cache_stats_breakdown[GLOBAL_ACC_W][RESERVATION_FAIL] = 0
	Total_core_cache_stats_breakdown[GLOBAL_ACC_W][SECTOR_MISS] = 0
	Total_core_cache_stats_breakdown[LOCAL_ACC_W][HIT] = 0
	Total_core_cache_stats_breakdown[LOCAL_ACC_W][HIT_RESERVED] = 0
	Total_core_cache_stats_breakdown[LOCAL_ACC_W][MISS] = 0
	Total_core_cache_stats_breakdown[LOCAL_ACC_W][RESERVATION_FAIL] = 0
	Total_core_cache_stats_breakdown[LOCAL_ACC_W][SECTOR_MISS] = 0
	Total_core_cache_stats_breakdown[L1_WRBK_ACC][HIT] = 0
	Total_core_cache_stats_breakdown[L1_WRBK_ACC][HIT_RESERVED] = 0
	Total_core_cache_stats_breakdown[L1_WRBK_ACC][MISS] = 0
	Total_core_cache_stats_breakdown[L1_WRBK_ACC][RESERVATION_FAIL] = 0
	Total_core_cache_stats_breakdown[L1_WRBK_ACC][SECTOR_MISS] = 0
	Total_core_cache_stats_breakdown[L2_WRBK_ACC][HIT] = 0
	Total_core_cache_stats_breakdown[L2_WRBK_ACC][HIT_RESERVED] = 0
	Total_core_cache_stats_breakdown[L2_WRBK_ACC][MISS] = 0
	Total_core_cache_stats_breakdown[L2_WRBK_ACC][RESERVATION_FAIL] = 0
	Total_core_cache_stats_breakdown[L2_WRBK_ACC][SECTOR_MISS] = 0
	Total_core_cache_stats_breakdown[INST_ACC_R][HIT] = 223547
	Total_core_cache_stats_breakdown[INST_ACC_R][HIT_RESERVED] = 0
	Total_core_cache_stats_breakdown[INST_ACC_R][MISS] = 1490
	Total_core_cache_stats_breakdown[INST_ACC_R][RESERVATION_FAIL] = 0
	Total_core_cache_stats_breakdown[INST_ACC_R][SECTOR_MISS] = 0
	Total_core_cache_stats_breakdown[L1_WR_ALLOC_R][HIT] = 0
	Total_core_cache_stats_breakdown[L1_WR_ALLOC_R][HIT_RESERVED] = 0
	Total_core_cache_stats_breakdown[L1_WR_ALLOC_R][MISS] = 0
	Total_core_cache_stats_breakdown[L1_WR_ALLOC_R][RESERVATION_FAIL] = 0
	Total_core_cache_stats_breakdown[L1_WR_ALLOC_R][SECTOR_MISS] = 0
	Total_core_cache_stats_breakdown[L2_WR_ALLOC_R][HIT] = 0
	Total_core_cache_stats_breakdown[L2_WR_ALLOC_R][HIT_RESERVED] = 0
	Total_core_cache_stats_breakdown[L2_WR_ALLOC_R][MISS] = 0
	Total_core_cache_stats_breakdown[L2_WR_ALLOC_R][RESERVATION_FAIL] = 0
	Total_core_cache_stats_breakdown[L2_WR_ALLOC_R][SECTOR_MISS] = 0
	Total_core_cache_stats_breakdown[GLOBAL_ACC_R][TOTAL_ACCESS] = 14930
	Total_core_cache_stats_breakdown[CONST_ACC_R][TOTAL_ACCESS] = 2632
	Total_core_cache_stats_breakdown[GLOBAL_ACC_W][TOTAL_ACCESS] = 672
	Total_core_cache_stats_breakdown[INST_ACC_R][TOTAL_ACCESS] = 225037

Total_core_cache_fail_stats:
	Total_core_cache_fail_stats_breakdown[CONST_ACC_R][MSHR_MERGE_ENRTY_FAIL] = 3358
ctas_completed 47, Shader 0 warp_id issue ditsribution:
warp_id:
0, 1, 2, 3, 4, 5, 6, 7, 8, 9, 10, 11, 12, 13, 14, 15, 16, 17, 18, 19, 20, 21, 22, 23, 24, 25, 26, 27, 28, 29, 30, 31, 
distro:
1166, 1166, 1166, 1166, 1166, 1166, 1166, 1166, 1166, 1166, 1166, 1166, 1166, 1166, 1166, 1166, 1166, 1166, 1166, 1166, 1166, 1166, 1166, 1166, 1166, 1166, 1166, 1166, 1166, 1166, 1166, 1166, 
gpgpu_n_tot_thrd_icount = 13941152
gpgpu_n_tot_w_icount = 435661
gpgpu_n_stall_shd_mem = 10798
gpgpu_n_mem_read_local = 0
gpgpu_n_mem_write_local = 0
gpgpu_n_mem_read_global = 8126
gpgpu_n_mem_write_global = 672
gpgpu_n_mem_texture = 0
gpgpu_n_mem_const = 15
gpgpu_n_load_insn  = 229320
gpgpu_n_store_insn = 10000
gpgpu_n_shmem_insn = 1306720
gpgpu_n_sstarr_insn = 0
gpgpu_n_tex_insn = 0
gpgpu_n_const_mem_insn = 0
gpgpu_n_param_mem_insn = 84224
gpgpu_n_shmem_bkconflict = 0
gpgpu_n_cache_bkconflict = 0
gpgpu_n_intrawarp_mshr_merge = 0
gpgpu_n_cmem_portconflict = 3358
gpgpu_stall_shd_mem[c_mem][resource_stall] = 3358
gpgpu_stall_shd_mem[s_mem][bk_conf] = 0
gpgpu_stall_shd_mem[gl_mem][resource_stall] = 0
gpgpu_stall_shd_mem[gl_mem][coal_stall] = 7440
gpgpu_stall_shd_mem[gl_mem][data_port_stall] = 0
gpu_reg_bank_conflict_stalls = 0
Warp Occupancy Distribution:
Stall:17045	W0_Idle:50354	W0_Scoreboard:190718	W1:0	W2:0	W3:0	W4:0	W5:0	W6:0	W7:0	W8:0	W9:0	W10:0	W11:0	W12:3219	W13:2484	W14:2484	W15:2484	W16:2484	W17:2484	W18:2484	W19:2484	W20:3035	W21:2484	W22:2484	W23:2484	W24:2484	W25:2484	W26:2484	W27:2484	W28:2484	W29:2484	W30:2484	W31:2484	W32:384695
single_issue_nums: WS0:218106	WS1:217555	
dual_issue_nums: WS0:0	WS1:0	
traffic_breakdown_coretomem[CONST_ACC_R] = 120 {8:15,}
traffic_breakdown_coretomem[GLOBAL_ACC_R] = 65008 {8:8126,}
traffic_breakdown_coretomem[GLOBAL_ACC_W] = 61632 {40:186,72:186,136:300,}
traffic_breakdown_coretomem[INST_ACC_R] = 960 {8:120,}
traffic_breakdown_memtocore[CONST_ACC_R] = 1200 {40:30,}
traffic_breakdown_memtocore[GLOBAL_ACC_R] = 1300160 {40:32504,}
traffic_breakdown_memtocore[GLOBAL_ACC_W] = 14064 {8:1758,}
traffic_breakdown_memtocore[INST_ACC_R] = 19200 {40:480,}
maxmflatency = 459 
max_icnt2mem_latency = 73 
maxmrqlatency = 128 
max_icnt2sh_latency = 46 
averagemflatency = 235 
avg_icnt2mem_latency = 11 
avg_mrq_latency = 8 
avg_icnt2sh_latency = 8 
mrq_lat_table:8146 	5828 	4778 	3871 	2211 	905 	546 	1 	0 	0 	0 	0 	0 	0 	0 	0 	0 	0 	0 	0 	0 	0 	0 	0 	0 	0 	0 	0 	0 	0 	0 	0 	
dq_lat_table:0 	0 	0 	0 	0 	0 	0 	0 	0 	0 	0 	0 	0 	0 	0 	0 	0 	0 	0 	0 	0 	0 	0 	0 	0 	0 	0 	0 	0 	0 	0 	0 	
mf_lat_table:0 	0 	0 	0 	0 	0 	0 	24975 	9317 	0 	0 	0 	0 	0 	0 	0 	0 	0 	0 	0 	0 	0 	0 	0 	0 	0 	0 	0 	0 	0 	0 	0 	
icnt2mem_lat_table:0 	0 	96 	33 	6 	8730 	68 	0 	0 	0 	0 	0 	0 	0 	0 	0 	0 	0 	0 	0 	0 	0 	0 	0 	
icnt2sh_lat_table:0 	0 	19742 	13497 	984 	69 	0 	0 	0 	0 	0 	0 	0 	0 	0 	0 	0 	0 	0 	0 	0 	0 	0 	0 	
mf_lat_pw_table:0 	0 	0 	0 	0 	0 	0 	49 	5 	0 	0 	0 	0 	0 	0 	0 	0 	0 	0 	0 	0 	0 	0 	0 	0 	0 	0 	0 	0 	0 	0 	0 	
maximum concurrent accesses to same row:
dram[0]:       128       128       128       128       128       128       128       128       128       128       128       128       128       128       128       128 
dram[1]:       128       128       128       128       128       128       128       128       128       128       128       128       128       128       128       128 
dram[2]:       128       128       128       128       128       128       128       128       128       128       128       128       128       128       128       128 
dram[3]:       128       128       128       128       128       128       128       128       128       128       128       128       128       128       128       128 
dram[4]:       128       128       128       128       128       128       128       128       128       128       128       128       128       128       128       128 
dram[5]:       128       128       128       128       128       128       128       128       128       128       128       128       128       128       128       128 
maximum service time to same row:
dram[0]:      9381      9552     11307     11358     12302     12334     13269     13238     14259     14363     15262     16068     17038     17007     17894     18028 
dram[1]:      9362      9541     11318     11357     12282     12332     13282     13237     14269     14481     15275     16060     17030     17031     17891     18038 
dram[2]:      9034      9541     11319     11622     12307     12349     13291     13276     14272     14472     16119     16060     17024     17029     17891     18024 
dram[3]:      9187      9493     11588     11627     12519     12432     13403     13310     14244     14315     16115     16165     17021     17088     17913     18022 
dram[4]:      9644      9501     11363     11313     12356     12313     13221     13284     14244     14313     16140     16146     17019     17021     17981     18072 
dram[5]:      9715      9494     11369     11297     12354     12294     13219     13271     14363     14278     16069     16141     17009     17021     17991     18063 
average row accesses per activate:
dram[0]: 62.333332 180.000000 144.000000 148.000000 256.000000 256.000000 256.000000 256.000000 256.000000 256.000000 256.000000 256.000000 256.000000 256.000000 256.000000 256.000000 
dram[1]: 61.333332 180.000000 144.000000 144.000000 256.000000 256.000000 256.000000 256.000000 256.000000 256.000000 256.000000 256.000000 256.000000 256.000000 256.000000 256.000000 
dram[2]: 122.666664 180.000000 148.000000 144.000000 256.000000 256.000000 256.000000 256.000000 256.000000 256.000000 256.000000 256.000000 256.000000 256.000000 256.000000 256.000000 
dram[3]: 73.599998 180.000000 148.000000 144.000000 256.000000 256.000000 256.000000 256.000000 256.000000 256.000000 256.000000 256.000000 256.000000 256.000000 256.000000 256.000000 
dram[4]: 180.000000 180.000000 148.000000 144.000000 256.000000 256.000000 256.000000 256.000000 256.000000 256.000000 256.000000 256.000000 256.000000 256.000000 256.000000 256.000000 
dram[5]: 180.000000 180.000000 148.000000 144.000000 256.000000 256.000000 256.000000 256.000000 256.000000 256.000000 256.000000 256.000000 256.000000 256.000000 256.000000 256.000000 
average row locality = 26286/132 = 199.136368
number of total memory accesses made:
dram[0]:         0         0         0         0         0         0         0         0         0         0         0         0         0         0         0         0 
dram[1]:         0         0         0         0         0         0         0         0         0         0         0         0         0         0         0         0 
dram[2]:         0         0         0         0         0         0         0         0         0         0         0         0         0         0         0         0 
dram[3]:         0         0         0         0         0         0         0         0         0         0         0         0         0         0         0         0 
dram[4]:         0         0         0         0         0         0         0         0         0         0         0         0         0         0         0         0 
dram[5]:         0         0         0         0         0         0         0         0         0         0         0         0         0         0         0         0 
total accesses: 0
min_bank_accesses = 0!
min_chip_accesses = 0!
number of total read accesses:
dram[0]:         0         0         0         0         0         0         0         0         0         0         0         0         0         0         0         0 
dram[1]:         0         0         0         0         0         0         0         0         0         0         0         0         0         0         0         0 
dram[2]:         0         0         0         0         0         0         0         0         0         0         0         0         0         0         0         0 
dram[3]:         0         0         0         0         0         0         0         0         0         0         0         0         0         0         0         0 
dram[4]:         0         0         0         0         0         0         0         0         0         0         0         0         0         0         0         0 
dram[5]:         0         0         0         0         0         0         0         0         0         0         0         0         0         0         0         0 
total dram reads = 0
min_bank_accesses = 0!
min_chip_accesses = 0!
number of total write accesses:
dram[0]:         0         0         0         0         0         0         0         0         0         0         0         0         0         0         0         0 
dram[1]:         0         0         0         0         0         0         0         0         0         0         0         0         0         0         0         0 
dram[2]:         0         0         0         0         0         0         0         0         0         0         0         0         0         0         0         0 
dram[3]:         0         0         0         0         0         0         0         0         0         0         0         0         0         0         0         0 
dram[4]:         0         0         0         0         0         0         0         0         0         0         0         0         0         0         0         0 
dram[5]:         0         0         0         0         0         0         0         0         0         0         0         0         0         0         0         0 
total dram writes = 0
min_bank_accesses = 0!
min_chip_accesses = 0!
average mf latency per bank:
dram[0]:     none      none      none      none      none      none      none      none      none      none      none      none      none      none      none      none  
dram[1]:     none      none      none      none      none      none      none      none      none      none      none      none      none      none      none      none  
dram[2]:     none      none      none      none      none      none      none      none      none      none      none      none      none      none      none      none  
dram[3]:     none      none      none      none      none      none      none      none      none      none      none      none      none      none      none      none  
dram[4]:     none      none      none      none      none      none      none      none      none      none      none      none      none      none      none      none  
dram[5]:     none      none      none      none      none      none      none      none      none      none      none      none      none      none      none      none  
maximum mf latency per bank:
dram[0]:        389       351       293       295       386       370       280       292       279       278       279       291       296       284       288       293
dram[1]:        459       337       331       287       369       415       368       375       302       283       282       291       301       305       280       299
dram[2]:        362       371       299       300       375       381       335       366       280       276       282       290       280       292       309       295
dram[3]:        344       374       348       301       366       399       305       370       281       283       282       293       281       280       293       279
dram[4]:        349       373       296       302       372       395       301       278       281       288       283       298       278       305       294       288
dram[5]:        369       371       297       305       377       406       302       281       279       275       283       282       293       302       296       300
Memory Partition 0: 
Cache L2_bank_000:
MSHR contents

Cache L2_bank_001:
MSHR contents

In Dram Latency Queue (total = 0): 
DRAM[0]: 16 bks, busW=4 BL=8 CL=12, tRRD=6 tCCD=2, tRCD=12 tRAS=28 tRP=12 tRC=40
n_cmd=36613 n_nop=32161 n_act=39 n_pre=23 n_ref_event=94894130662992 n_req=4390 n_rd=4390 n_rd_L2_A=0 n_write=0 n_wr_bk=0 bw_util=0.2398
n_activity=15062 dram_eff=0.5829
bk0: 374a 35613i bk1: 360a 35686i bk2: 288a 35920i bk3: 296a 35906i bk4: 256a 36019i bk5: 256a 35909i bk6: 256a 36035i bk7: 256a 36012i bk8: 256a 36048i bk9: 256a 36031i bk10: 256a 36050i bk11: 256a 36021i bk12: 256a 35972i bk13: 256a 36025i bk14: 256a 36020i bk15: 256a 36005i 

------------------------------------------------------------------------

Row_Buffer_Locality = 0.994533
Row_Buffer_Locality_read = 0.994533
Row_Buffer_Locality_write = -nan
Bank_Level_Parallism = 1.355535
Bank_Level_Parallism_Col = 0.676934
Bank_Level_Parallism_Ready = 1.094533
write_to_read_ratio_blp_rw_average = 0.000000
GrpLevelPara = 0.000000 

BW Util details:
bwutil = 0.239806 
total_CMD = 36613 
util_bw = 8780 
Wasted_Col = 2577 
Wasted_Row = 181 
Idle = 25075 

BW Util Bottlenecks: 
RCDc_limit = 337 
RCDWRc_limit = 0 
WTRc_limit = 0 
RTWc_limit = 0 
CCDLc_limit = 2377 
rwq = 0 
CCDLc_limit_alone = 2377 
WTRc_limit_alone = 0 
RTWc_limit_alone = 0 

Commands details: 
total_CMD = 36613 
n_nop = 32161 
Read = 4390 
Write = 0 
L2_Alloc = 0 
L2_WB = 0 
n_act = 39 
n_pre = 23 
n_ref = 94894130662992 
n_req = 4390 
total_req = 4390 

Dual Bus Interface Util: 
issued_total_row = 62 
issued_total_col = 4390 
Row_Bus_Util =  0.001693 
CoL_Bus_Util = 0.119903 
Either_Row_CoL_Bus_Util = 0.121596 
Issued_on_Two_Bus_Simul_Util = 0.000000 
issued_two_Eff = 0.000000 
queue_avg = 1.224893 


dram_util_bins: 0 0 0 0 0 0 0 0 0 0
dram_eff_bins: 0 0 0 0 0 0 0 0 0 0
mrqq: max=63 avg=1.22489
Memory Partition 1: 
Cache L2_bank_002:
MSHR contents

Cache L2_bank_003:
MSHR contents

In Dram Latency Queue (total = 0): 
DRAM[1]: 16 bks, busW=4 BL=8 CL=12, tRRD=6 tCCD=2, tRCD=12 tRAS=28 tRP=12 tRC=40
n_cmd=36613 n_nop=32175 n_act=39 n_pre=23 n_ref_event=0 n_req=4376 n_rd=4376 n_rd_L2_A=0 n_write=0 n_wr_bk=0 bw_util=0.239
n_activity=15187 dram_eff=0.5763
bk0: 368a 35710i bk1: 360a 35789i bk2: 288a 35947i bk3: 288a 35935i bk4: 256a 35950i bk5: 256a 35885i bk6: 256a 35977i bk7: 256a 35897i bk8: 256a 36019i bk9: 256a 36042i bk10: 256a 36059i bk11: 256a 36077i bk12: 256a 36033i bk13: 256a 36032i bk14: 256a 36051i bk15: 256a 36064i 

------------------------------------------------------------------------

Row_Buffer_Locality = 0.994516
Row_Buffer_Locality_read = 0.994516
Row_Buffer_Locality_write = -nan
Bank_Level_Parallism = 1.327269
Bank_Level_Parallism_Col = 1.004557
Bank_Level_Parallism_Ready = 1.095227
write_to_read_ratio_blp_rw_average = 0.000000
GrpLevelPara = 0.000000 

BW Util details:
bwutil = 0.239041 
total_CMD = 36613 
util_bw = 8752 
Wasted_Col = 2709 
Wasted_Row = 131 
Idle = 25021 

BW Util Bottlenecks: 
RCDc_limit = 324 
RCDWRc_limit = 0 
WTRc_limit = 0 
RTWc_limit = 0 
CCDLc_limit = 2514 
rwq = 0 
CCDLc_limit_alone = 2514 
WTRc_limit_alone = 0 
RTWc_limit_alone = 0 

Commands details: 
total_CMD = 36613 
n_nop = 32175 
Read = 4376 
Write = 0 
L2_Alloc = 0 
L2_WB = 0 
n_act = 39 
n_pre = 23 
n_ref = 0 
n_req = 4376 
total_req = 4376 

Dual Bus Interface Util: 
issued_total_row = 62 
issued_total_col = 4376 
Row_Bus_Util =  0.001693 
CoL_Bus_Util = 0.119520 
Either_Row_CoL_Bus_Util = 0.121214 
Issued_on_Two_Bus_Simul_Util = 0.000000 
issued_two_Eff = 0.000000 
queue_avg = 1.233742 


dram_util_bins: 0 0 0 0 0 0 0 0 0 0
dram_eff_bins: 0 0 0 0 0 0 0 0 0 0
mrqq: max=64 avg=1.23374
Memory Partition 2: 
Cache L2_bank_004:
MSHR contents

Cache L2_bank_005:
MSHR contents

In Dram Latency Queue (total = 0): 
DRAM[2]: 16 bks, busW=4 BL=8 CL=12, tRRD=6 tCCD=2, tRCD=12 tRAS=28 tRP=12 tRC=40
n_cmd=36613 n_nop=32172 n_act=37 n_pre=21 n_ref_event=0 n_req=4384 n_rd=4384 n_rd_L2_A=0 n_write=0 n_wr_bk=0 bw_util=0.2395
n_activity=14967 dram_eff=0.5858
bk0: 368a 35685i bk1: 360a 35761i bk2: 296a 35921i bk3: 288a 35892i bk4: 256a 35962i bk5: 256a 35958i bk6: 256a 35975i bk7: 256a 35903i bk8: 256a 36056i bk9: 256a 36043i bk10: 256a 36041i bk11: 256a 36060i bk12: 256a 36034i bk13: 256a 35973i bk14: 256a 35997i bk15: 256a 36088i 

------------------------------------------------------------------------

Row_Buffer_Locality = 0.995210
Row_Buffer_Locality_read = 0.995210
Row_Buffer_Locality_write = -nan
Bank_Level_Parallism = 1.351608
Bank_Level_Parallism_Col = 1.004513
Bank_Level_Parallism_Ready = 1.081870
write_to_read_ratio_blp_rw_average = 0.000000
GrpLevelPara = 0.000000 

BW Util details:
bwutil = 0.239478 
total_CMD = 36613 
util_bw = 8768 
Wasted_Col = 2589 
Wasted_Row = 145 
Idle = 25111 

BW Util Bottlenecks: 
RCDc_limit = 329 
RCDWRc_limit = 0 
WTRc_limit = 0 
RTWc_limit = 0 
CCDLc_limit = 2410 
rwq = 0 
CCDLc_limit_alone = 2410 
WTRc_limit_alone = 0 
RTWc_limit_alone = 0 

Commands details: 
total_CMD = 36613 
n_nop = 32172 
Read = 4384 
Write = 0 
L2_Alloc = 0 
L2_WB = 0 
n_act = 37 
n_pre = 21 
n_ref = 0 
n_req = 4384 
total_req = 4384 

Dual Bus Interface Util: 
issued_total_row = 58 
issued_total_col = 4384 
Row_Bus_Util =  0.001584 
CoL_Bus_Util = 0.119739 
Either_Row_CoL_Bus_Util = 0.121296 
Issued_on_Two_Bus_Simul_Util = 0.000027 
issued_two_Eff = 0.000225 
queue_avg = 1.293612 


dram_util_bins: 0 0 0 0 0 0 0 0 0 0
dram_eff_bins: 0 0 0 0 0 0 0 0 0 0
mrqq: max=64 avg=1.29361
Memory Partition 3: 
Cache L2_bank_006:
MSHR contents

Cache L2_bank_007:
MSHR contents

In Dram Latency Queue (total = 0): 
DRAM[3]: 16 bks, busW=4 BL=8 CL=12, tRRD=6 tCCD=2, tRCD=12 tRAS=28 tRP=12 tRC=40
n_cmd=36613 n_nop=32168 n_act=39 n_pre=23 n_ref_event=0 n_req=4384 n_rd=4384 n_rd_L2_A=0 n_write=0 n_wr_bk=0 bw_util=0.2395
n_activity=15010 dram_eff=0.5841
bk0: 368a 35647i bk1: 360a 35737i bk2: 296a 35940i bk3: 288a 35909i bk4: 256a 35952i bk5: 256a 35936i bk6: 256a 35990i bk7: 256a 35958i bk8: 256a 36023i bk9: 256a 36000i bk10: 256a 36042i bk11: 256a 35989i bk12: 256a 36043i bk13: 256a 36050i bk14: 256a 36012i bk15: 256a 36055i 

------------------------------------------------------------------------

Row_Buffer_Locality = 0.994754
Row_Buffer_Locality_read = 0.994754
Row_Buffer_Locality_write = -nan
Bank_Level_Parallism = 1.360124
Bank_Level_Parallism_Col = 1.354141
Bank_Level_Parallism_Ready = 1.094576
write_to_read_ratio_blp_rw_average = 0.000000
GrpLevelPara = 1.324513 

BW Util details:
bwutil = 0.239478 
total_CMD = 36613 
util_bw = 8768 
Wasted_Col = 2559 
Wasted_Row = 156 
Idle = 25130 

BW Util Bottlenecks: 
RCDc_limit = 317 
RCDWRc_limit = 0 
WTRc_limit = 0 
RTWc_limit = 0 
CCDLc_limit = 2349 
rwq = 0 
CCDLc_limit_alone = 2349 
WTRc_limit_alone = 0 
RTWc_limit_alone = 0 

Commands details: 
total_CMD = 36613 
n_nop = 32168 
Read = 4384 
Write = 0 
L2_Alloc = 0 
L2_WB = 0 
n_act = 39 
n_pre = 23 
n_ref = 0 
n_req = 4384 
total_req = 4384 

Dual Bus Interface Util: 
issued_total_row = 62 
issued_total_col = 4384 
Row_Bus_Util =  0.001693 
CoL_Bus_Util = 0.119739 
Either_Row_CoL_Bus_Util = 0.121405 
Issued_on_Two_Bus_Simul_Util = 0.000027 
issued_two_Eff = 0.000225 
queue_avg = 1.195805 


dram_util_bins: 0 0 0 0 0 0 0 0 0 0
dram_eff_bins: 0 0 0 0 0 0 0 0 0 0
mrqq: max=63 avg=1.1958
Memory Partition 4: 
Cache L2_bank_008:
MSHR contents

Cache L2_bank_009:
MSHR contents

In Dram Latency Queue (total = 0): 
DRAM[4]: 16 bks, busW=4 BL=8 CL=12, tRRD=6 tCCD=2, tRCD=12 tRAS=28 tRP=12 tRC=40
n_cmd=36613 n_nop=32182 n_act=36 n_pre=20 n_ref_event=4565658604079112714 n_req=4376 n_rd=4376 n_rd_L2_A=0 n_write=0 n_wr_bk=0 bw_util=0.239
n_activity=14895 dram_eff=0.5876
bk0: 360a 35756i bk1: 360a 35695i bk2: 296a 35958i bk3: 288a 35931i bk4: 256a 35928i bk5: 256a 35873i bk6: 256a 35971i bk7: 256a 36026i bk8: 256a 36022i bk9: 256a 35964i bk10: 256a 36047i bk11: 256a 36020i bk12: 256a 36034i bk13: 256a 36007i bk14: 256a 36076i bk15: 256a 35974i 

------------------------------------------------------------------------

Row_Buffer_Locality = 0.995430
Row_Buffer_Locality_read = 0.995430
Row_Buffer_Locality_write = -nan
Bank_Level_Parallism = 1.369251
Bank_Level_Parallism_Col = 1.364940
Bank_Level_Parallism_Ready = 1.099863
write_to_read_ratio_blp_rw_average = 0.000000
GrpLevelPara = 1.336925 

BW Util details:
bwutil = 0.239041 
total_CMD = 36613 
util_bw = 8752 
Wasted_Col = 2487 
Wasted_Row = 152 
Idle = 25222 

BW Util Bottlenecks: 
RCDc_limit = 274 
RCDWRc_limit = 0 
WTRc_limit = 0 
RTWc_limit = 0 
CCDLc_limit = 2307 
rwq = 0 
CCDLc_limit_alone = 2307 
WTRc_limit_alone = 0 
RTWc_limit_alone = 0 

Commands details: 
total_CMD = 36613 
n_nop = 32182 
Read = 4376 
Write = 0 
L2_Alloc = 0 
L2_WB = 0 
n_act = 36 
n_pre = 20 
n_ref = 4565658604079112714 
n_req = 4376 
total_req = 4376 

Dual Bus Interface Util: 
issued_total_row = 56 
issued_total_col = 4376 
Row_Bus_Util =  0.001530 
CoL_Bus_Util = 0.119520 
Either_Row_CoL_Bus_Util = 0.121023 
Issued_on_Two_Bus_Simul_Util = 0.000027 
issued_two_Eff = 0.000226 
queue_avg = 1.156666 


dram_util_bins: 0 0 0 0 0 0 0 0 0 0
dram_eff_bins: 0 0 0 0 0 0 0 0 0 0
mrqq: max=62 avg=1.15667
Memory Partition 5: 
Cache L2_bank_010:
MSHR contents

Cache L2_bank_011:
MSHR contents

In Dram Latency Queue (total = 0): 
DRAM[5]: 16 bks, busW=4 BL=8 CL=12, tRRD=6 tCCD=2, tRCD=12 tRAS=28 tRP=12 tRC=40
n_cmd=36613 n_nop=32182 n_act=36 n_pre=20 n_ref_event=0 n_req=4376 n_rd=4376 n_rd_L2_A=0 n_write=0 n_wr_bk=0 bw_util=0.239
n_activity=14796 dram_eff=0.5915
bk0: 360a 35744i bk1: 360a 35638i bk2: 296a 35944i bk3: 288a 35929i bk4: 256a 35993i bk5: 256a 35862i bk6: 256a 36005i bk7: 256a 35993i bk8: 256a 36060i bk9: 256a 36093i bk10: 256a 36045i bk11: 256a 36017i bk12: 256a 36000i bk13: 256a 35966i bk14: 256a 35995i bk15: 256a 35994i 

------------------------------------------------------------------------

Row_Buffer_Locality = 0.995430
Row_Buffer_Locality_read = 0.995430
Row_Buffer_Locality_write = -nan
Bank_Level_Parallism = 1.362403
Bank_Level_Parallism_Col = 0.000000
Bank_Level_Parallism_Ready = 1.096619
write_to_read_ratio_blp_rw_average = 0.000000
GrpLevelPara = 0.000000 

BW Util details:
bwutil = 0.239041 
total_CMD = 36613 
util_bw = 8752 
Wasted_Col = 2532 
Wasted_Row = 141 
Idle = 25188 

BW Util Bottlenecks: 
RCDc_limit = 317 
RCDWRc_limit = 0 
WTRc_limit = 0 
RTWc_limit = 0 
CCDLc_limit = 2289 
rwq = 0 
CCDLc_limit_alone = 2289 
WTRc_limit_alone = 0 
RTWc_limit_alone = 0 

Commands details: 
total_CMD = 36613 
n_nop = 32182 
Read = 4376 
Write = 0 
L2_Alloc = 0 
L2_WB = 0 
n_act = 36 
n_pre = 20 
n_ref = 0 
n_req = 4376 
total_req = 4376 

Dual Bus Interface Util: 
issued_total_row = 56 
issued_total_col = 4376 
Row_Bus_Util =  0.001530 
CoL_Bus_Util = 0.119520 
Either_Row_CoL_Bus_Util = 0.121023 
Issued_on_Two_Bus_Simul_Util = 0.000027 
issued_two_Eff = 0.000226 
queue_avg = 1.204545 


dram_util_bins: 0 0 0 0 0 0 0 0 0 0
dram_eff_bins: 0 0 0 0 0 0 0 0 0 0
mrqq: max=62 avg=1.20454

========= L2 cache stats =========
L2_cache_bank[0]: Access = 3000, Miss = 2339, Miss_rate = 0.780, Pending_hits = 226, Reservation_fails = 342
L2_cache_bank[1]: Access = 2853, Miss = 2333, Miss_rate = 0.818, Pending_hits = 246, Reservation_fails = 0
L2_cache_bank[2]: Access = 2973, Miss = 2337, Miss_rate = 0.786, Pending_hits = 268, Reservation_fails = 245
L2_cache_bank[3]: Access = 2850, Miss = 2323, Miss_rate = 0.815, Pending_hits = 245, Reservation_fails = 0
L2_cache_bank[4]: Access = 2987, Miss = 2348, Miss_rate = 0.786, Pending_hits = 274, Reservation_fails = 147
L2_cache_bank[5]: Access = 2853, Miss = 2323, Miss_rate = 0.814, Pending_hits = 281, Reservation_fails = 0
L2_cache_bank[6]: Access = 2985, Miss = 2345, Miss_rate = 0.786, Pending_hits = 336, Reservation_fails = 114
L2_cache_bank[7]: Access = 2858, Miss = 2324, Miss_rate = 0.813, Pending_hits = 233, Reservation_fails = 0
L2_cache_bank[8]: Access = 2853, Miss = 2333, Miss_rate = 0.818, Pending_hits = 268, Reservation_fails = 0
L2_cache_bank[9]: Access = 2850, Miss = 2323, Miss_rate = 0.815, Pending_hits = 276, Reservation_fails = 0
L2_cache_bank[10]: Access = 2857, Miss = 2332, Miss_rate = 0.816, Pending_hits = 234, Reservation_fails = 0
L2_cache_bank[11]: Access = 2853, Miss = 2327, Miss_rate = 0.816, Pending_hits = 214, Reservation_fails = 0
L2_total_cache_accesses = 34772
L2_total_cache_misses = 27987
L2_total_cache_miss_rate = 0.8049
L2_total_cache_pending_hits = 3101
L2_total_cache_reservation_fails = 848
L2_total_cache_breakdown:
	L2_cache_stats_breakdown[GLOBAL_ACC_R][HIT] = 3253
	L2_cache_stats_breakdown[GLOBAL_ACC_R][HIT_RESERVED] = 2999
	L2_cache_stats_breakdown[GLOBAL_ACC_R][MISS] = 6563
	L2_cache_stats_breakdown[GLOBAL_ACC_R][RESERVATION_FAIL] = 0
	L2_cache_stats_breakdown[GLOBAL_ACC_R][SECTOR_MISS] = 19689
	L2_cache_stats_breakdown[LOCAL_ACC_R][HIT] = 0
	L2_cache_stats_breakdown[LOCAL_ACC_R][HIT_RESERVED] = 0
	L2_cache_stats_breakdown[LOCAL_ACC_R][MISS] = 0
	L2_cache_stats_breakdown[LOCAL_ACC_R][RESERVATION_FAIL] = 0
	L2_cache_stats_breakdown[LOCAL_ACC_R][SECTOR_MISS] = 0
	L2_cache_stats_breakdown[CONST_ACC_R][HIT] = 22
	L2_cache_stats_breakdown[CONST_ACC_R][HIT_RESERVED] = 6
	L2_cache_stats_breakdown[CONST_ACC_R][MISS] = 1
	L2_cache_stats_breakdown[CONST_ACC_R][RESERVATION_FAIL] = 115
	L2_cache_stats_breakdown[CONST_ACC_R][SECTOR_MISS] = 1
	L2_cache_stats_breakdown[TEXTURE_ACC_R][HIT] = 0
	L2_cache_stats_breakdown[TEXTURE_ACC_R][HIT_RESERVED] = 0
	L2_cache_stats_breakdown[TEXTURE_ACC_R][MISS] = 0
	L2_cache_stats_breakdown[TEXTURE_ACC_R][RESERVATION_FAIL] = 0
	L2_cache_stats_breakdown[TEXTURE_ACC_R][SECTOR_MISS] = 0
	L2_cache_stats_breakdown[GLOBAL_ACC_W][HIT] = 57
	L2_cache_stats_breakdown[GLOBAL_ACC_W][HIT_RESERVED] = 0
	L2_cache_stats_breakdown[GLOBAL_ACC_W][MISS] = 313
	L2_cache_stats_breakdown[GLOBAL_ACC_W][RESERVATION_FAIL] = 0
	L2_cache_stats_breakdown[GLOBAL_ACC_W][SECTOR_MISS] = 1388
	L2_cache_stats_breakdown[LOCAL_ACC_W][HIT] = 0
	L2_cache_stats_breakdown[LOCAL_ACC_W][HIT_RESERVED] = 0
	L2_cache_stats_breakdown[LOCAL_ACC_W][MISS] = 0
	L2_cache_stats_breakdown[LOCAL_ACC_W][RESERVATION_FAIL] = 0
	L2_cache_stats_breakdown[LOCAL_ACC_W][SECTOR_MISS] = 0
	L2_cache_stats_breakdown[L1_WRBK_ACC][HIT] = 0
	L2_cache_stats_breakdown[L1_WRBK_ACC][HIT_RESERVED] = 0
	L2_cache_stats_breakdown[L1_WRBK_ACC][MISS] = 0
	L2_cache_stats_breakdown[L1_WRBK_ACC][RESERVATION_FAIL] = 0
	L2_cache_stats_breakdown[L1_WRBK_ACC][SECTOR_MISS] = 0
	L2_cache_stats_breakdown[L2_WRBK_ACC][HIT] = 0
	L2_cache_stats_breakdown[L2_WRBK_ACC][HIT_RESERVED] = 0
	L2_cache_stats_breakdown[L2_WRBK_ACC][MISS] = 0
	L2_cache_stats_breakdown[L2_WRBK_ACC][RESERVATION_FAIL] = 0
	L2_cache_stats_breakdown[L2_WRBK_ACC][SECTOR_MISS] = 0
	L2_cache_stats_breakdown[INST_ACC_R][HIT] = 352
	L2_cache_stats_breakdown[INST_ACC_R][HIT_RESERVED] = 96
	L2_cache_stats_breakdown[INST_ACC_R][MISS] = 8
	L2_cache_stats_breakdown[INST_ACC_R][RESERVATION_FAIL] = 733
	L2_cache_stats_breakdown[INST_ACC_R][SECTOR_MISS] = 24
	L2_cache_stats_breakdown[L1_WR_ALLOC_R][HIT] = 0
	L2_cache_stats_breakdown[L1_WR_ALLOC_R][HIT_RESERVED] = 0
	L2_cache_stats_breakdown[L1_WR_ALLOC_R][MISS] = 0
	L2_cache_stats_breakdown[L1_WR_ALLOC_R][RESERVATION_FAIL] = 0
	L2_cache_stats_breakdown[L1_WR_ALLOC_R][SECTOR_MISS] = 0
	L2_cache_stats_breakdown[L2_WR_ALLOC_R][HIT] = 0
	L2_cache_stats_breakdown[L2_WR_ALLOC_R][HIT_RESERVED] = 0
	L2_cache_stats_breakdown[L2_WR_ALLOC_R][MISS] = 0
	L2_cache_stats_breakdown[L2_WR_ALLOC_R][RESERVATION_FAIL] = 0
	L2_cache_stats_breakdown[L2_WR_ALLOC_R][SECTOR_MISS] = 0
	L2_cache_stats_breakdown[GLOBAL_ACC_R][TOTAL_ACCESS] = 32504
	L2_cache_stats_breakdown[CONST_ACC_R][TOTAL_ACCESS] = 30
	L2_cache_stats_breakdown[GLOBAL_ACC_W][TOTAL_ACCESS] = 1758
	L2_cache_stats_breakdown[INST_ACC_R][TOTAL_ACCESS] = 480
L2_total_cache_reservation_fail_breakdown:
	L2_cache_stats_fail_breakdown[CONST_ACC_R][MSHR_MERGE_ENRTY_FAIL] = 115
	L2_cache_stats_fail_breakdown[INST_ACC_R][MSHR_MERGE_ENRTY_FAIL] = 733
L2_cache_data_port_util = 0.011
L2_cache_fill_port_util = 0.079

icnt_total_pkts_mem_to_simt=34772
icnt_total_pkts_simt_to_mem=10019
LD_mem_lat_dist  0 0 0 0 0 0 0 0 0 0 0 0 0 0 0 0 0 0 0 0 0 0 0 0 0 0 0
ST_mem_lat_dist  0 0 0 0 0 0 0 0 0 0 0 0 0 0 0 0 0 0 0 0 0 0 0 0 0 0 0
----------------------------Interconnect-DETAILS--------------------------------
Class 0:
Packet latency average = 6.23059
	minimum = 5
	maximum = 44
Network latency average = 6.1644
	minimum = 5
	maximum = 44
Slowest packet = 41831
Flit latency average = 6.11982
	minimum = 5
	maximum = 44
Slowest flit = 42602
Fragmentation average = 0
	minimum = 0
	maximum = 0
Injected packet rate average = 0.0583569
	minimum = 0.0208739 (at node 2)
	maximum = 0.108155 (at node 15)
Accepted packet rate average = 0.0583569
	minimum = 0.0263898 (at node 16)
	maximum = 0.106208 (at node 0)
Injected flit rate average = 0.059807
	minimum = 0.0232533 (at node 2)
	maximum = 0.108155 (at node 15)
Accepted flit rate average= 0.059807
	minimum = 0.0295263 (at node 24)
	maximum = 0.106208 (at node 0)
Injected packet length average = 1.02485
Accepted packet length average = 1.02485
Total in-flight flits = 0 (0 measured)
====== Overall Traffic Statistics ======
====== Traffic class 0 ======
Packet latency average = 6.23059 (1 samples)
	minimum = 5 (1 samples)
	maximum = 44 (1 samples)
Network latency average = 6.1644 (1 samples)
	minimum = 5 (1 samples)
	maximum = 44 (1 samples)
Flit latency average = 6.11982 (1 samples)
	minimum = 5 (1 samples)
	maximum = 44 (1 samples)
Fragmentation average = 0 (1 samples)
	minimum = 0 (1 samples)
	maximum = 0 (1 samples)
Injected packet rate average = 0.0583569 (1 samples)
	minimum = 0.0208739 (1 samples)
	maximum = 0.108155 (1 samples)
Accepted packet rate average = 0.0583569 (1 samples)
	minimum = 0.0263898 (1 samples)
	maximum = 0.106208 (1 samples)
Injected flit rate average = 0.059807 (1 samples)
	minimum = 0.0232533 (1 samples)
	maximum = 0.108155 (1 samples)
Accepted flit rate average = 0.059807 (1 samples)
	minimum = 0.0295263 (1 samples)
	maximum = 0.106208 (1 samples)
Injected packet size average = 1.02485 (1 samples)
Accepted packet size average = 1.02485 (1 samples)
Hops average = 1 (1 samples)
----------------------------END-of-Interconnect-DETAILS-------------------------


gpgpu_simulation_time = 0 days, 0 hrs, 0 min, 20 sec (20 sec)
gpgpu_simulation_rate = 635538 (inst/sec)
gpgpu_simulation_rate = 1386 (cycle/sec)
gpgpu_silicon_slowdown = 505050x
GPGPU-Sim: synchronize waiting for inactive GPU simulation
GPGPU-Sim API: Stream Manager State
GPGPU-Sim: detected inactive GPU simulation thread
GPGPU-Sim PTX: Setting up arguments for 4 bytes starting at 0x7fff602c888c..
GPGPU-Sim PTX: Setting up arguments for 8 bytes starting at 0x7fff602c8880..
GPGPU-Sim PTX: Setting up arguments for 8 bytes starting at 0x7fff602c8878..
GPGPU-Sim PTX: Setting up arguments for 8 bytes starting at 0x7fff602c8870..
GPGPU-Sim PTX: Setting up arguments for 4 bytes starting at 0x7fff602c8888..
GPGPU-Sim PTX: Setting up arguments for 4 bytes starting at 0x7fff602c886c..
GPGPU-Sim PTX: Setting up arguments for 4 bytes starting at 0x7fff602c8920..
GPGPU-Sim PTX: Setting up arguments for 4 bytes starting at 0x7fff602c8928..

GPGPU-Sim PTX: cudaLaunch for 0x0x564e42e96ba4 (mode=performance simulation) on stream 0
GPGPU-Sim PTX: PDOM analysis already done for _Z14dynproc_kerneliPiS_S_iiii 
GPGPU-Sim PTX: pushing kernel '_Z14dynproc_kerneliPiS_S_iiii' to stream 0, gridDim= (47,1,1) blockDim = (256,1,1) 
GPGPU-Sim uArch: Shader 2 bind to kernel 2 '_Z14dynproc_kerneliPiS_S_iiii'
GPGPU-Sim uArch: Shader 3 bind to kernel 2 '_Z14dynproc_kerneliPiS_S_iiii'
GPGPU-Sim uArch: Shader 4 bind to kernel 2 '_Z14dynproc_kerneliPiS_S_iiii'
GPGPU-Sim uArch: Shader 5 bind to kernel 2 '_Z14dynproc_kerneliPiS_S_iiii'
GPGPU-Sim uArch: Shader 6 bind to kernel 2 '_Z14dynproc_kerneliPiS_S_iiii'
GPGPU-Sim uArch: Shader 7 bind to kernel 2 '_Z14dynproc_kerneliPiS_S_iiii'
GPGPU-Sim uArch: Shader 8 bind to kernel 2 '_Z14dynproc_kerneliPiS_S_iiii'
GPGPU-Sim uArch: Shader 9 bind to kernel 2 '_Z14dynproc_kerneliPiS_S_iiii'
GPGPU-Sim uArch: Shader 10 bind to kernel 2 '_Z14dynproc_kerneliPiS_S_iiii'
GPGPU-Sim uArch: Shader 11 bind to kernel 2 '_Z14dynproc_kerneliPiS_S_iiii'
GPGPU-Sim uArch: Shader 12 bind to kernel 2 '_Z14dynproc_kerneliPiS_S_iiii'
GPGPU-Sim uArch: Shader 13 bind to kernel 2 '_Z14dynproc_kerneliPiS_S_iiii'
GPGPU-Sim uArch: Shader 14 bind to kernel 2 '_Z14dynproc_kerneliPiS_S_iiii'
GPGPU-Sim uArch: Shader 0 bind to kernel 2 '_Z14dynproc_kerneliPiS_S_iiii'
GPGPU-Sim uArch: Shader 1 bind to kernel 2 '_Z14dynproc_kerneliPiS_S_iiii'
Destroy streams for kernel 2: size 0
kernel_name = _Z14dynproc_kerneliPiS_S_iiii 
kernel_launch_uid = 2 
gpu_sim_cycle = 25659
gpu_sim_insn = 12710760
gpu_ipc =     495.3724
gpu_tot_sim_cycle = 53397
gpu_tot_sim_insn = 25421520
gpu_tot_ipc =     476.0852
gpu_tot_issued_cta = 94
gpu_occupancy = 51.8430% 
gpu_tot_occupancy = 51.5931% 
max_total_param_size = 0
gpu_stall_dramfull = 121
gpu_stall_icnt2sh    = 0
partiton_level_parallism =       0.3429
partiton_level_parallism_total  =       0.3321
partiton_level_parallism_util =       1.2303
partiton_level_parallism_util_total  =       1.2564
L2_BW  =      29.9103 GB/Sec
L2_BW_total  =      28.9597 GB/Sec
gpu_total_sim_rate=668987

========= Core cache stats =========
L1I_cache:
	L1I_total_cache_accesses = 450074
	L1I_total_cache_misses = 1490
	L1I_total_cache_miss_rate = 0.0033
	L1I_total_cache_pending_hits = 0
	L1I_total_cache_reservation_fails = 0
L1D_cache:
	L1D_cache_core[0]: Access = 2347, Miss = 1318, Miss_rate = 0.562, Pending_hits = 977, Reservation_fails = 0
	L1D_cache_core[1]: Access = 2134, Miss = 1210, Miss_rate = 0.567, Pending_hits = 860, Reservation_fails = 0
	L1D_cache_core[2]: Access = 2347, Miss = 1318, Miss_rate = 0.562, Pending_hits = 949, Reservation_fails = 9
	L1D_cache_core[3]: Access = 2134, Miss = 1210, Miss_rate = 0.567, Pending_hits = 903, Reservation_fails = 0
	L1D_cache_core[4]: Access = 2022, Miss = 1140, Miss_rate = 0.564, Pending_hits = 870, Reservation_fails = 0
	L1D_cache_core[5]: Access = 2022, Miss = 1140, Miss_rate = 0.564, Pending_hits = 864, Reservation_fails = 0
	L1D_cache_core[6]: Access = 2022, Miss = 1140, Miss_rate = 0.564, Pending_hits = 840, Reservation_fails = 0
	L1D_cache_core[7]: Access = 2022, Miss = 1140, Miss_rate = 0.564, Pending_hits = 846, Reservation_fails = 0
	L1D_cache_core[8]: Access = 2022, Miss = 1140, Miss_rate = 0.564, Pending_hits = 871, Reservation_fails = 0
	L1D_cache_core[9]: Access = 2022, Miss = 1140, Miss_rate = 0.564, Pending_hits = 861, Reservation_fails = 0
	L1D_cache_core[10]: Access = 2022, Miss = 1140, Miss_rate = 0.564, Pending_hits = 855, Reservation_fails = 0
	L1D_cache_core[11]: Access = 2022, Miss = 1140, Miss_rate = 0.564, Pending_hits = 850, Reservation_fails = 0
	L1D_cache_core[12]: Access = 2022, Miss = 1140, Miss_rate = 0.564, Pending_hits = 863, Reservation_fails = 0
	L1D_cache_core[13]: Access = 2022, Miss = 1140, Miss_rate = 0.564, Pending_hits = 862, Reservation_fails = 0
	L1D_cache_core[14]: Access = 2022, Miss = 1140, Miss_rate = 0.564, Pending_hits = 858, Reservation_fails = 0
	L1D_total_cache_accesses = 31204
	L1D_total_cache_misses = 17596
	L1D_total_cache_miss_rate = 0.5639
	L1D_total_cache_pending_hits = 13129
	L1D_total_cache_reservation_fails = 9
	L1D_cache_data_port_util = 0.001
	L1D_cache_fill_port_util = 0.025
L1C_cache:
	L1C_total_cache_accesses = 5264
	L1C_total_cache_misses = 480
	L1C_total_cache_miss_rate = 0.0912
	L1C_total_cache_pending_hits = 0
	L1C_total_cache_reservation_fails = 3358
L1T_cache:
	L1T_total_cache_accesses = 0
	L1T_total_cache_misses = 0
	L1T_total_cache_pending_hits = 0
	L1T_total_cache_reservation_fails = 0

Total_core_cache_stats:
	Total_core_cache_stats_breakdown[GLOBAL_ACC_R][HIT] = 479
	Total_core_cache_stats_breakdown[GLOBAL_ACC_R][HIT_RESERVED] = 13129
	Total_core_cache_stats_breakdown[GLOBAL_ACC_R][MISS] = 16252
	Total_core_cache_stats_breakdown[GLOBAL_ACC_R][RESERVATION_FAIL] = 0
	Total_core_cache_stats_breakdown[GLOBAL_ACC_R][SECTOR_MISS] = 0
	Total_core_cache_stats_breakdown[LOCAL_ACC_R][HIT] = 0
	Total_core_cache_stats_breakdown[LOCAL_ACC_R][HIT_RESERVED] = 0
	Total_core_cache_stats_breakdown[LOCAL_ACC_R][MISS] = 0
	Total_core_cache_stats_breakdown[LOCAL_ACC_R][RESERVATION_FAIL] = 0
	Total_core_cache_stats_breakdown[LOCAL_ACC_R][SECTOR_MISS] = 0
	Total_core_cache_stats_breakdown[CONST_ACC_R][HIT] = 4784
	Total_core_cache_stats_breakdown[CONST_ACC_R][HIT_RESERVED] = 0
	Total_core_cache_stats_breakdown[CONST_ACC_R][MISS] = 480
	Total_core_cache_stats_breakdown[CONST_ACC_R][RESERVATION_FAIL] = 3358
	Total_core_cache_stats_breakdown[CONST_ACC_R][SECTOR_MISS] = 0
	Total_core_cache_stats_breakdown[TEXTURE_ACC_R][HIT] = 0
	Total_core_cache_stats_breakdown[TEXTURE_ACC_R][HIT_RESERVED] = 0
	Total_core_cache_stats_breakdown[TEXTURE_ACC_R][MISS] = 0
	Total_core_cache_stats_breakdown[TEXTURE_ACC_R][RESERVATION_FAIL] = 0
	Total_core_cache_stats_breakdown[TEXTURE_ACC_R][SECTOR_MISS] = 0
	Total_core_cache_stats_breakdown[GLOBAL_ACC_W][HIT] = 0
	Total_core_cache_stats_breakdown[GLOBAL_ACC_W][HIT_RESERVED] = 0
	Total_core_cache_stats_breakdown[GLOBAL_ACC_W][MISS] = 1344
	Total_core_cache_stats_breakdown[GLOBAL_ACC_W][RESERVATION_FAIL] = 9
	Total_core_cache_stats_breakdown[GLOBAL_ACC_W][SECTOR_MISS] = 0
	Total_core_cache_stats_breakdown[LOCAL_ACC_W][HIT] = 0
	Total_core_cache_stats_breakdown[LOCAL_ACC_W][HIT_RESERVED] = 0
	Total_core_cache_stats_breakdown[LOCAL_ACC_W][MISS] = 0
	Total_core_cache_stats_breakdown[LOCAL_ACC_W][RESERVATION_FAIL] = 0
	Total_core_cache_stats_breakdown[LOCAL_ACC_W][SECTOR_MISS] = 0
	Total_core_cache_stats_breakdown[L1_WRBK_ACC][HIT] = 0
	Total_core_cache_stats_breakdown[L1_WRBK_ACC][HIT_RESERVED] = 0
	Total_core_cache_stats_breakdown[L1_WRBK_ACC][MISS] = 0
	Total_core_cache_stats_breakdown[L1_WRBK_ACC][RESERVATION_FAIL] = 0
	Total_core_cache_stats_breakdown[L1_WRBK_ACC][SECTOR_MISS] = 0
	Total_core_cache_stats_breakdown[L2_WRBK_ACC][HIT] = 0
	Total_core_cache_stats_breakdown[L2_WRBK_ACC][HIT_RESERVED] = 0
	Total_core_cache_stats_breakdown[L2_WRBK_ACC][MISS] = 0
	Total_core_cache_stats_breakdown[L2_WRBK_ACC][RESERVATION_FAIL] = 0
	Total_core_cache_stats_breakdown[L2_WRBK_ACC][SECTOR_MISS] = 0
	Total_core_cache_stats_breakdown[INST_ACC_R][HIT] = 448584
	Total_core_cache_stats_breakdown[INST_ACC_R][HIT_RESERVED] = 0
	Total_core_cache_stats_breakdown[INST_ACC_R][MISS] = 1490
	Total_core_cache_stats_breakdown[INST_ACC_R][RESERVATION_FAIL] = 0
	Total_core_cache_stats_breakdown[INST_ACC_R][SECTOR_MISS] = 0
	Total_core_cache_stats_breakdown[L1_WR_ALLOC_R][HIT] = 0
	Total_core_cache_stats_breakdown[L1_WR_ALLOC_R][HIT_RESERVED] = 0
	Total_core_cache_stats_breakdown[L1_WR_ALLOC_R][MISS] = 0
	Total_core_cache_stats_breakdown[L1_WR_ALLOC_R][RESERVATION_FAIL] = 0
	Total_core_cache_stats_breakdown[L1_WR_ALLOC_R][SECTOR_MISS] = 0
	Total_core_cache_stats_breakdown[L2_WR_ALLOC_R][HIT] = 0
	Total_core_cache_stats_breakdown[L2_WR_ALLOC_R][HIT_RESERVED] = 0
	Total_core_cache_stats_breakdown[L2_WR_ALLOC_R][MISS] = 0
	Total_core_cache_stats_breakdown[L2_WR_ALLOC_R][RESERVATION_FAIL] = 0
	Total_core_cache_stats_breakdown[L2_WR_ALLOC_R][SECTOR_MISS] = 0
	Total_core_cache_stats_breakdown[GLOBAL_ACC_R][TOTAL_ACCESS] = 29860
	Total_core_cache_stats_breakdown[CONST_ACC_R][TOTAL_ACCESS] = 5264
	Total_core_cache_stats_breakdown[GLOBAL_ACC_W][TOTAL_ACCESS] = 1344
	Total_core_cache_stats_breakdown[INST_ACC_R][TOTAL_ACCESS] = 450074

Total_core_cache_fail_stats:
	Total_core_cache_fail_stats_breakdown[CONST_ACC_R][MSHR_MERGE_ENRTY_FAIL] = 3358
	Total_core_cache_fail_stats_breakdown[GLOBAL_ACC_W][MISS_QUEUE_FULL] = 9
ctas_completed 94, Shader 0 warp_id issue ditsribution:
warp_id:
0, 1, 2, 3, 4, 5, 6, 7, 8, 9, 10, 11, 12, 13, 14, 15, 16, 17, 18, 19, 20, 21, 22, 23, 24, 25, 26, 27, 28, 29, 30, 31, 
distro:
2332, 2332, 2332, 2332, 2332, 2332, 2332, 2332, 2332, 2332, 2332, 2332, 2332, 2332, 2332, 2332, 2332, 2332, 2332, 2332, 2332, 2332, 2332, 2332, 1166, 1166, 1166, 1166, 1166, 1166, 1166, 1166, 
gpgpu_n_tot_thrd_icount = 27882304
gpgpu_n_tot_w_icount = 871322
gpgpu_n_stall_shd_mem = 18238
gpgpu_n_mem_read_local = 0
gpgpu_n_mem_write_local = 0
gpgpu_n_mem_read_global = 16252
gpgpu_n_mem_write_global = 1344
gpgpu_n_mem_texture = 0
gpgpu_n_mem_const = 15
gpgpu_n_load_insn  = 458640
gpgpu_n_store_insn = 20000
gpgpu_n_shmem_insn = 2613440
gpgpu_n_sstarr_insn = 0
gpgpu_n_tex_insn = 0
gpgpu_n_const_mem_insn = 0
gpgpu_n_param_mem_insn = 168448
gpgpu_n_shmem_bkconflict = 0
gpgpu_n_cache_bkconflict = 0
gpgpu_n_intrawarp_mshr_merge = 0
gpgpu_n_cmem_portconflict = 3358
gpgpu_stall_shd_mem[c_mem][resource_stall] = 3358
gpgpu_stall_shd_mem[s_mem][bk_conf] = 0
gpgpu_stall_shd_mem[gl_mem][resource_stall] = 0
gpgpu_stall_shd_mem[gl_mem][coal_stall] = 14880
gpgpu_stall_shd_mem[gl_mem][data_port_stall] = 0
gpu_reg_bank_conflict_stalls = 0
Warp Occupancy Distribution:
Stall:28525	W0_Idle:59000	W0_Scoreboard:366565	W1:0	W2:0	W3:0	W4:0	W5:0	W6:0	W7:0	W8:0	W9:0	W10:0	W11:0	W12:6438	W13:4968	W14:4968	W15:4968	W16:4968	W17:4968	W18:4968	W19:4968	W20:6070	W21:4968	W22:4968	W23:4968	W24:4968	W25:4968	W26:4968	W27:4968	W28:4968	W29:4968	W30:4968	W31:4968	W32:769390
single_issue_nums: WS0:436212	WS1:435110	
dual_issue_nums: WS0:0	WS1:0	
traffic_breakdown_coretomem[CONST_ACC_R] = 120 {8:15,}
traffic_breakdown_coretomem[GLOBAL_ACC_R] = 130016 {8:16252,}
traffic_breakdown_coretomem[GLOBAL_ACC_W] = 123264 {40:372,72:372,136:600,}
traffic_breakdown_coretomem[INST_ACC_R] = 960 {8:120,}
traffic_breakdown_memtocore[CONST_ACC_R] = 1200 {40:30,}
traffic_breakdown_memtocore[GLOBAL_ACC_R] = 2600320 {40:65008,}
traffic_breakdown_memtocore[GLOBAL_ACC_W] = 28128 {8:3516,}
traffic_breakdown_memtocore[INST_ACC_R] = 19200 {40:480,}
maxmflatency = 459 
max_icnt2mem_latency = 80 
maxmrqlatency = 134 
max_icnt2sh_latency = 46 
averagemflatency = 231 
avg_icnt2mem_latency = 11 
avg_mrq_latency = 7 
avg_icnt2sh_latency = 8 
mrq_lat_table:16291 	11412 	9583 	7397 	5016 	1598 	713 	4 	0 	0 	0 	0 	0 	0 	0 	0 	0 	0 	0 	0 	0 	0 	0 	0 	0 	0 	0 	0 	0 	0 	0 	0 	
dq_lat_table:0 	0 	0 	0 	0 	0 	0 	0 	0 	0 	0 	0 	0 	0 	0 	0 	0 	0 	0 	0 	0 	0 	0 	0 	0 	0 	0 	0 	0 	0 	0 	0 	
mf_lat_table:0 	0 	0 	0 	0 	0 	0 	50229 	18325 	0 	0 	0 	0 	0 	0 	0 	0 	0 	0 	0 	0 	0 	0 	0 	0 	0 	0 	0 	0 	0 	0 	0 	
icnt2mem_lat_table:0 	0 	96 	33 	6 	17448 	148 	0 	0 	0 	0 	0 	0 	0 	0 	0 	0 	0 	0 	0 	0 	0 	0 	0 	
icnt2sh_lat_table:0 	0 	38040 	28103 	2317 	94 	0 	0 	0 	0 	0 	0 	0 	0 	0 	0 	0 	0 	0 	0 	0 	0 	0 	0 	
[...]
dram[2]:        362       371       311       342       375       381       335       366       296       300       285       290       307       295       309       295
dram[3]:        344       397       348       331       366       399       305       370       290       288       282       293       317       325       293       309
dram[4]:        398       373       406       342       372       395       301       311       292       293       285       298       300       305       294       306
dram[5]:        369       371       365       351       377       406       302       318       287       289       287       284       293       302       296       300
Memory Partition 0: 
Cache L2_bank_000:
MSHR contents

Cache L2_bank_001:
MSHR contents

In Dram Latency Queue (total = 0): 
DRAM[0]: 16 bks, busW=4 BL=8 CL=12, tRRD=6 tCCD=2, tRCD=12 tRAS=28 tRP=12 tRC=40
n_cmd=170383 n_nop=148252 n_act=336 n_pre=320 n_ref_event=94894130662992 n_req=21308 n_rd=21132 n_rd_L2_A=0 n_write=0 n_wr_bk=350 bw_util=0.2522
n_activity=78790 dram_eff=0.5453
bk0: 1488a 165209i bk1: 1464a 165403i bk2: 1382a 165689i bk3: 1382a 165517i bk4: 1312a 167263i bk5: 1304a 167162i bk6: 1280a 167369i bk7: 1280a 167347i bk8: 1280a 167343i bk9: 1280a 167461i bk10: 1280a 167565i bk11: 1280a 167428i bk12: 1280a 167419i bk13: 1280a 167526i bk14: 1280a 167593i bk15: 1280a 167598i 

------------------------------------------------------------------------

Row_Buffer_Locality = 0.984935
Row_Buffer_Locality_read = 0.988454
Row_Buffer_Locality_write = 0.562500
Bank_Level_Parallism = 1.304959
Bank_Level_Parallism_Col = 0.676934
Bank_Level_Parallism_Ready = 1.070332
write_to_read_ratio_blp_rw_average = 0.000000
GrpLevelPara = 0.000000 

BW Util details:
bwutil = 0.252161 
total_CMD = 170383 
util_bw = 42964 
Wasted_Col = 15457 
Wasted_Row = 2616 
Idle = 109346 

BW Util Bottlenecks: 
RCDc_limit = 2397 
RCDWRc_limit = 396 
WTRc_limit = 254 
RTWc_limit = 674 
CCDLc_limit = 12902 
rwq = 0 
CCDLc_limit_alone = 12785 
WTRc_limit_alone = 242 
RTWc_limit_alone = 569 

Commands details: 
total_CMD = 170383 
n_nop = 148252 
Read = 21132 
Write = 0 
L2_Alloc = 0 
L2_WB = 350 
n_act = 336 
n_pre = 320 
n_ref = 94894130662992 
n_req = 21308 
total_req = 21482 

Dual Bus Interface Util: 
issued_total_row = 656 
issued_total_col = 21482 
Row_Bus_Util =  0.003850 
CoL_Bus_Util = 0.126081 
Either_Row_CoL_Bus_Util = 0.129890 
Issued_on_Two_Bus_Simul_Util = 0.000041 
issued_two_Eff = 0.000316 
queue_avg = 1.138570 


dram_util_bins: 0 0 0 0 0 0 0 0 0 0
dram_eff_bins: 0 0 0 0 0 0 0 0 0 0
mrqq: max=63 avg=1.13857
Memory Partition 1: 
Cache L2_bank_002:
MSHR contents

Cache L2_bank_003:
MSHR contents

In Dram Latency Queue (total = 0): 
DRAM[1]: 16 bks, busW=4 BL=8 CL=12, tRRD=6 tCCD=2, tRCD=12 tRAS=28 tRP=12 tRC=40
n_cmd=170383 n_nop=148255 n_act=339 n_pre=323 n_ref_event=0 n_req=21294 n_rd=21118 n_rd_L2_A=0 n_write=0 n_wr_bk=350 bw_util=0.252
n_activity=79329 dram_eff=0.5412
bk0: 1484a 165014i bk1: 1462a 165319i bk2: 1376a 165826i bk3: 1380a 165855i bk4: 1312a 167112i bk5: 1304a 167199i bk6: 1280a 167234i bk7: 1280a 167273i bk8: 1280a 167324i bk9: 1280a 167535i bk10: 1280a 167533i bk11: 1280a 167514i bk12: 1280a 167544i bk13: 1280a 167587i bk14: 1280a 167601i bk15: 1280a 167636i 

------------------------------------------------------------------------

Row_Buffer_Locality = 0.984784
Row_Buffer_Locality_read = 0.988446
Row_Buffer_Locality_write = 0.545455
Bank_Level_Parallism = 1.297570
Bank_Level_Parallism_Col = 1.004557
Bank_Level_Parallism_Ready = 1.060397
write_to_read_ratio_blp_rw_average = 0.000000
GrpLevelPara = 0.000000 

BW Util details:
bwutil = 0.251997 
total_CMD = 170383 
util_bw = 42936 
Wasted_Col = 15612 
Wasted_Row = 2636 
Idle = 109199 

BW Util Bottlenecks: 
RCDc_limit = 2380 
RCDWRc_limit = 417 
WTRc_limit = 283 
RTWc_limit = 805 
CCDLc_limit = 12975 
rwq = 0 
CCDLc_limit_alone = 12826 
WTRc_limit_alone = 271 
RTWc_limit_alone = 668 

Commands details: 
total_CMD = 170383 
n_nop = 148255 
Read = 21118 
Write = 0 
L2_Alloc = 0 
L2_WB = 350 
n_act = 339 
n_pre = 323 
n_ref = 0 
n_req = 21294 
total_req = 21468 

Dual Bus Interface Util: 
issued_total_row = 662 
issued_total_col = 21468 
Row_Bus_Util =  0.003885 
CoL_Bus_Util = 0.125998 
Either_Row_CoL_Bus_Util = 0.129872 
Issued_on_Two_Bus_Simul_Util = 0.000012 
issued_two_Eff = 0.000090 
queue_avg = 1.155391 


dram_util_bins: 0 0 0 0 0 0 0 0 0 0
dram_eff_bins: 0 0 0 0 0 0 0 0 0 0
mrqq: max=64 avg=1.15539
Memory Partition 2: 
Cache L2_bank_004:
MSHR contents

Cache L2_bank_005:
MSHR contents

In Dram Latency Queue (total = 0): 
DRAM[2]: 16 bks, busW=4 BL=8 CL=12, tRRD=6 tCCD=2, tRCD=12 tRAS=28 tRP=12 tRC=40
n_cmd=170383 n_nop=148263 n_act=334 n_pre=318 n_ref_event=0 n_req=21300 n_rd=21126 n_rd_L2_A=0 n_write=0 n_wr_bk=348 bw_util=0.2521
n_activity=78807 dram_eff=0.545
bk0: 1484a 165044i bk1: 1466a 165513i bk2: 1382a 165726i bk3: 1378a 165866i bk4: 1312a 167122i bk5: 1304a 167117i bk6: 1280a 167313i bk7: 1280a 167371i bk8: 1280a 167465i bk9: 1280a 167507i bk10: 1280a 167526i bk11: 1280a 167604i bk12: 1280a 167457i bk13: 1280a 167537i bk14: 1280a 167677i bk15: 1280a 167713i 

------------------------------------------------------------------------

Row_Buffer_Locality = 0.985070
Row_Buffer_Locality_read = 0.988592
Row_Buffer_Locality_write = 0.557471
Bank_Level_Parallism = 1.292393
Bank_Level_Parallism_Col = 1.004513
Bank_Level_Parallism_Ready = 1.056016
write_to_read_ratio_blp_rw_average = 0.000000
GrpLevelPara = 0.000000 

BW Util details:
bwutil = 0.252067 
total_CMD = 170383 
util_bw = 42948 
Wasted_Col = 15393 
Wasted_Row = 2755 
Idle = 109287 

BW Util Bottlenecks: 
RCDc_limit = 2354 
RCDWRc_limit = 426 
WTRc_limit = 261 
RTWc_limit = 665 
CCDLc_limit = 12869 
rwq = 0 
CCDLc_limit_alone = 12747 
WTRc_limit_alone = 250 
RTWc_limit_alone = 554 

Commands details: 
total_CMD = 170383 
n_nop = 148263 
Read = 21126 
Write = 0 
L2_Alloc = 0 
L2_WB = 348 
n_act = 334 
n_pre = 318 
n_ref = 0 
n_req = 21300 
total_req = 21474 

Dual Bus Interface Util: 
issued_total_row = 652 
issued_total_col = 21474 
Row_Bus_Util =  0.003827 
CoL_Bus_Util = 0.126034 
Either_Row_CoL_Bus_Util = 0.129825 
Issued_on_Two_Bus_Simul_Util = 0.000035 
issued_two_Eff = 0.000271 
queue_avg = 1.112006 


dram_util_bins: 0 0 0 0 0 0 0 0 0 0
dram_eff_bins: 0 0 0 0 0 0 0 0 0 0
mrqq: max=64 avg=1.11201
Memory Partition 3: 
Cache L2_bank_006:
MSHR contents

Cache L2_bank_007:
MSHR contents

In Dram Latency Queue (total = 0): 
DRAM[3]: 16 bks, busW=4 BL=8 CL=12, tRRD=6 tCCD=2, tRCD=12 tRAS=28 tRP=12 tRC=40
n_cmd=170383 n_nop=148267 n_act=335 n_pre=319 n_ref_event=0 n_req=21292 n_rd=21120 n_rd_L2_A=0 n_write=0 n_wr_bk=344 bw_util=0.252
n_activity=78389 dram_eff=0.5476
bk0: 1476a 165386i bk1: 1468a 165225i bk2: 1386a 165679i bk3: 1382a 165770i bk4: 1304a 167206i bk5: 1304a 167243i bk6: 1280a 167324i bk7: 1280a 167401i bk8: 1280a 167551i bk9: 1280a 167506i bk10: 1280a 167567i bk11: 1280a 167508i bk12: 1280a 167456i bk13: 1280a 167474i bk14: 1280a 167663i bk15: 1280a 167632i 

------------------------------------------------------------------------

Row_Buffer_Locality = 0.985018
Row_Buffer_Locality_read = 0.988542
Row_Buffer_Locality_write = 0.552326
Bank_Level_Parallism = 1.299562
Bank_Level_Parallism_Col = 1.277054
Bank_Level_Parallism_Ready = 1.058615
write_to_read_ratio_blp_rw_average = 0.032795
GrpLevelPara = 1.251062 

BW Util details:
bwutil = 0.251950 
total_CMD = 170383 
util_bw = 42928 
Wasted_Col = 15195 
Wasted_Row = 2559 
Idle = 109701 

BW Util Bottlenecks: 
RCDc_limit = 2249 
RCDWRc_limit = 375 
WTRc_limit = 165 
RTWc_limit = 653 
CCDLc_limit = 12808 
rwq = 0 
CCDLc_limit_alone = 12729 
WTRc_limit_alone = 159 
RTWc_limit_alone = 580 

Commands details: 
total_CMD = 170383 
n_nop = 148267 
Read = 21120 
Write = 0 
L2_Alloc = 0 
L2_WB = 344 
n_act = 335 
n_pre = 319 
n_ref = 0 
n_req = 21292 
total_req = 21464 

Dual Bus Interface Util: 
issued_total_row = 654 
issued_total_col = 21464 
Row_Bus_Util =  0.003838 
CoL_Bus_Util = 0.125975 
Either_Row_CoL_Bus_Util = 0.129802 
Issued_on_Two_Bus_Simul_Util = 0.000012 
issued_two_Eff = 0.000090 
queue_avg = 1.134902 


dram_util_bins: 0 0 0 0 0 0 0 0 0 0
dram_eff_bins: 0 0 0 0 0 0 0 0 0 0
mrqq: max=63 avg=1.1349
Memory Partition 4: 
Cache L2_bank_008:
MSHR contents

Cache L2_bank_009:
MSHR contents

In Dram Latency Queue (total = 0): 
DRAM[4]: 16 bks, busW=4 BL=8 CL=12, tRRD=6 tCCD=2, tRCD=12 tRAS=28 tRP=12 tRC=40
n_cmd=170383 n_nop=148296 n_act=334 n_pre=318 n_ref_event=4565658604079112714 n_req=21272 n_rd=21098 n_rd_L2_A=0 n_write=0 n_wr_bk=348 bw_util=0.2517
n_activity=78560 dram_eff=0.546
bk0: 1460a 165436i bk1: 1466a 165352i bk2: 1384a 165642i bk3: 1380a 165830i bk4: 1304a 167095i bk5: 1304a 167082i bk6: 1280a 167391i bk7: 1280a 167444i bk8: 1280a 167484i bk9: 1280a 167365i bk10: 1280a 167569i bk11: 1280a 167526i bk12: 1280a 167486i bk13: 1280a 167492i bk14: 1280a 167703i bk15: 1280a 167453i 

------------------------------------------------------------------------

Row_Buffer_Locality = 0.985051
Row_Buffer_Locality_read = 0.988625
Row_Buffer_Locality_write = 0.551724
Bank_Level_Parallism = 1.307618
Bank_Level_Parallism_Col = 1.283240
Bank_Level_Parallism_Ready = 1.063141
write_to_read_ratio_blp_rw_average = 0.034685
GrpLevelPara = 1.256499 

BW Util details:
bwutil = 0.251739 
total_CMD = 170383 
util_bw = 42892 
Wasted_Col = 15151 
Wasted_Row = 2484 
Idle = 109856 

BW Util Bottlenecks: 
RCDc_limit = 2239 
RCDWRc_limit = 399 
WTRc_limit = 194 
RTWc_limit = 725 
CCDLc_limit = 12749 
rwq = 0 
CCDLc_limit_alone = 12674 
WTRc_limit_alone = 191 
RTWc_limit_alone = 653 

Commands details: 
total_CMD = 170383 
n_nop = 148296 
Read = 21098 
Write = 0 
L2_Alloc = 0 
L2_WB = 348 
n_act = 334 
n_pre = 318 
n_ref = 4565658604079112714 
n_req = 21272 
total_req = 21446 

Dual Bus Interface Util: 
issued_total_row = 652 
issued_total_col = 21446 
Row_Bus_Util =  0.003827 
CoL_Bus_Util = 0.125869 
Either_Row_CoL_Bus_Util = 0.129631 
Issued_on_Two_Bus_Simul_Util = 0.000065 
issued_two_Eff = 0.000498 
queue_avg = 1.105691 


dram_util_bins: 0 0 0 0 0 0 0 0 0 0
dram_eff_bins: 0 0 0 0 0 0 0 0 0 0
mrqq: max=62 avg=1.10569
Memory Partition 5: 
Cache L2_bank_010:
MSHR contents

Cache L2_bank_011:
MSHR contents

In Dram Latency Queue (total = 0): 
DRAM[5]: 16 bks, busW=4 BL=8 CL=12, tRRD=6 tCCD=2, tRCD=12 tRAS=28 tRP=12 tRC=40
n_cmd=170383 n_nop=148288 n_act=332 n_pre=316 n_ref_event=0 n_req=21278 n_rd=21104 n_rd_L2_A=0 n_write=0 n_wr_bk=348 bw_util=0.2518
n_activity=79486 dram_eff=0.5398
bk0: 1462a 165348i bk1: 1476a 165238i bk2: 1380a 165707i bk3: 1378a 165742i bk4: 1304a 167260i bk5: 1304a 167209i bk6: 1280a 167485i bk7: 1280a 167416i bk8: 1280a 167563i bk9: 1280a 167467i bk10: 1280a 167562i bk11: 1280a 167472i bk12: 1280a 167539i bk13: 1280a 167519i bk14: 1280a 167611i bk15: 1280a 167583i 

------------------------------------------------------------------------

Row_Buffer_Locality = 0.985149
Row_Buffer_Locality_read = 0.988675
Row_Buffer_Locality_write = 0.557471
Bank_Level_Parallism = 1.296529
Bank_Level_Parallism_Col = 0.000000
Bank_Level_Parallism_Ready = 1.056617
write_to_read_ratio_blp_rw_average = 0.000000
GrpLevelPara = 0.000000 

BW Util details:
bwutil = 0.251809 
total_CMD = 170383 
util_bw = 42904 
Wasted_Col = 15360 
Wasted_Row = 2587 
Idle = 109532 

BW Util Bottlenecks: 
RCDc_limit = 2342 
RCDWRc_limit = 409 
WTRc_limit = 216 
RTWc_limit = 781 
CCDLc_limit = 12757 
rwq = 0 
CCDLc_limit_alone = 12634 
WTRc_limit_alone = 209 
RTWc_limit_alone = 665 

Commands details: 
total_CMD = 170383 
n_nop = 148288 
Read = 21104 
Write = 0 
L2_Alloc = 0 
L2_WB = 348 
n_act = 332 
n_pre = 316 
n_ref = 0 
n_req = 21278 
total_req = 21452 

Dual Bus Interface Util: 
issued_total_row = 648 
issued_total_col = 21452 
Row_Bus_Util =  0.003803 
CoL_Bus_Util = 0.125905 
Either_Row_CoL_Bus_Util = 0.129678 
Issued_on_Two_Bus_Simul_Util = 0.000029 
issued_two_Eff = 0.000226 
queue_avg = 1.099470 


dram_util_bins: 0 0 0 0 0 0 0 0 0 0
dram_eff_bins: 0 0 0 0 0 0 0 0 0 0
mrqq: max=62 avg=1.09947

========= L2 cache stats =========
L2_cache_bank[0]: Access = 14253, Miss = 11288, Miss_rate = 0.792, Pending_hits = 891, Reservation_fails = 342
L2_cache_bank[1]: Access = 14121, Miss = 11248, Miss_rate = 0.797, Pending_hits = 988, Reservation_fails = 2
L2_cache_bank[2]: Access = 14253, Miss = 11286, Miss_rate = 0.792, Pending_hits = 933, Reservation_fails = 246
L2_cache_bank[3]: Access = 14127, Miss = 11248, Miss_rate = 0.796, Pending_hits = 946, Reservation_fails = 5
L2_cache_bank[4]: Access = 14238, Miss = 11305, Miss_rate = 0.794, Pending_hits = 870, Reservation_fails = 149
L2_cache_bank[5]: Access = 14130, Miss = 11241, Miss_rate = 0.796, Pending_hits = 1041, Reservation_fails = 3
L2_cache_bank[6]: Access = 14243, Miss = 11281, Miss_rate = 0.792, Pending_hits = 1038, Reservation_fails = 116
L2_cache_bank[7]: Access = 14096, Miss = 11252, Miss_rate = 0.798, Pending_hits = 958, Reservation_fails = 0
L2_cache_bank[8]: Access = 14128, Miss = 11264, Miss_rate = 0.797, Pending_hits = 1092, Reservation_fails = 3
L2_cache_bank[9]: Access = 14093, Miss = 11253, Miss_rate = 0.798, Pending_hits = 983, Reservation_fails = 4
L2_cache_bank[10]: Access = 14117, Miss = 11252, Miss_rate = 0.797, Pending_hits = 988, Reservation_fails = 0
L2_cache_bank[11]: Access = 14107, Miss = 11263, Miss_rate = 0.798, Pending_hits = 898, Reservation_fails = 3
L2_total_cache_accesses = 169906
L2_total_cache_misses = 135181
L2_total_cache_miss_rate = 0.7956
L2_total_cache_pending_hits = 11626
L2_total_cache_reservation_fails = 873
L2_total_cache_breakdown:
	L2_cache_stats_breakdown[GLOBAL_ACC_R][HIT] = 22460
	L2_cache_stats_breakdown[GLOBAL_ACC_R][HIT_RESERVED] = 11524
	L2_cache_stats_breakdown[GLOBAL_ACC_R][MISS] = 31251
	L2_cache_stats_breakdown[GLOBAL_ACC_R][RESERVATION_FAIL] = 25
	L2_cache_stats_breakdown[GLOBAL_ACC_R][SECTOR_MISS] = 95413
	L2_cache_stats_breakdown[LOCAL_ACC_R][HIT] = 0
	L2_cache_stats_breakdown[LOCAL_ACC_R][HIT_RESERVED] = 0
	L2_cache_stats_breakdown[LOCAL_ACC_R][MISS] = 0
	L2_cache_stats_breakdown[LOCAL_ACC_R][RESERVATION_FAIL] = 0
	L2_cache_stats_breakdown[LOCAL_ACC_R][SECTOR_MISS] = 0
	L2_cache_stats_breakdown[CONST_ACC_R][HIT] = 22
	L2_cache_stats_breakdown[CONST_ACC_R][HIT_RESERVED] = 6
	L2_cache_stats_breakdown[CONST_ACC_R][MISS] = 1
	L2_cache_stats_breakdown[CONST_ACC_R][RESERVATION_FAIL] = 115
	L2_cache_stats_breakdown[CONST_ACC_R][SECTOR_MISS] = 1
	L2_cache_stats_breakdown[TEXTURE_ACC_R][HIT] = 0
	L2_cache_stats_breakdown[TEXTURE_ACC_R][HIT_RESERVED] = 0
	L2_cache_stats_breakdown[TEXTURE_ACC_R][MISS] = 0
	L2_cache_stats_breakdown[TEXTURE_ACC_R][RESERVATION_FAIL] = 0
	L2_cache_stats_breakdown[TEXTURE_ACC_R][SECTOR_MISS] = 0
	L2_cache_stats_breakdown[GLOBAL_ACC_W][HIT] = 265
	L2_cache_stats_breakdown[GLOBAL_ACC_W][HIT_RESERVED] = 0
	L2_cache_stats_breakdown[GLOBAL_ACC_W][MISS] = 1565
	L2_cache_stats_breakdown[GLOBAL_ACC_W][RESERVATION_FAIL] = 0
	L2_cache_stats_breakdown[GLOBAL_ACC_W][SECTOR_MISS] = 6918
	L2_cache_stats_breakdown[LOCAL_ACC_W][HIT] = 0
	L2_cache_stats_breakdown[LOCAL_ACC_W][HIT_RESERVED] = 0
	L2_cache_stats_breakdown[LOCAL_ACC_W][MISS] = 0
	L2_cache_stats_breakdown[LOCAL_ACC_W][RESERVATION_FAIL] = 0
	L2_cache_stats_breakdown[LOCAL_ACC_W][SECTOR_MISS] = 0
	L2_cache_stats_breakdown[L1_WRBK_ACC][HIT] = 0
	L2_cache_stats_breakdown[L1_WRBK_ACC][HIT_RESERVED] = 0
	L2_cache_stats_breakdown[L1_WRBK_ACC][MISS] = 0
	L2_cache_stats_breakdown[L1_WRBK_ACC][RESERVATION_FAIL] = 0
	L2_cache_stats_breakdown[L1_WRBK_ACC][SECTOR_MISS] = 0
	L2_cache_stats_breakdown[L2_WRBK_ACC][HIT] = 0
	L2_cache_stats_breakdown[L2_WRBK_ACC][HIT_RESERVED] = 0
	L2_cache_stats_breakdown[L2_WRBK_ACC][MISS] = 0
	L2_cache_stats_breakdown[L2_WRBK_ACC][RESERVATION_FAIL] = 0
	L2_cache_stats_breakdown[L2_WRBK_ACC][SECTOR_MISS] = 0
	L2_cache_stats_breakdown[INST_ACC_R][HIT] = 352
	L2_cache_stats_breakdown[INST_ACC_R][HIT_RESERVED] = 96
	L2_cache_stats_breakdown[INST_ACC_R][MISS] = 8
	L2_cache_stats_breakdown[INST_ACC_R][RESERVATION_FAIL] = 733
	L2_cache_stats_breakdown[INST_ACC_R][SECTOR_MISS] = 24
	L2_cache_stats_breakdown[L1_WR_ALLOC_R][HIT] = 0
	L2_cache_stats_breakdown[L1_WR_ALLOC_R][HIT_RESERVED] = 0
	L2_cache_stats_breakdown[L1_WR_ALLOC_R][MISS] = 0
	L2_cache_stats_breakdown[L1_WR_ALLOC_R][RESERVATION_FAIL] = 0
	L2_cache_stats_breakdown[L1_WR_ALLOC_R][SECTOR_MISS] = 0
	L2_cache_stats_breakdown[L2_WR_ALLOC_R][HIT] = 0
	L2_cache_stats_breakdown[L2_WR_ALLOC_R][HIT_RESERVED] = 0
	L2_cache_stats_breakdown[L2_WR_ALLOC_R][MISS] = 0
	L2_cache_stats_breakdown[L2_WR_ALLOC_R][RESERVATION_FAIL] = 0
	L2_cache_stats_breakdown[L2_WR_ALLOC_R][SECTOR_MISS] = 0
	L2_cache_stats_breakdown[GLOBAL_ACC_R][TOTAL_ACCESS] = 160648
	L2_cache_stats_breakdown[CONST_ACC_R][TOTAL_ACCESS] = 30
	L2_cache_stats_breakdown[GLOBAL_ACC_W][TOTAL_ACCESS] = 8748
	L2_cache_stats_breakdown[INST_ACC_R][TOTAL_ACCESS] = 480
L2_total_cache_reservation_fail_breakdown:
	L2_cache_stats_fail_breakdown[GLOBAL_ACC_R][MISS_QUEUE_FULL] = 25
	L2_cache_stats_fail_breakdown[CONST_ACC_R][MSHR_MERGE_ENRTY_FAIL] = 115
	L2_cache_stats_fail_breakdown[INST_ACC_R][MSHR_MERGE_ENRTY_FAIL] = 733
L2_cache_data_port_util = 0.015
L2_cache_fill_port_util = 0.082

icnt_total_pkts_mem_to_simt=169906
icnt_total_pkts_simt_to_mem=49045
LD_mem_lat_dist  0 0 0 0 0 0 0 0 0 0 0 0 0 0 0 0 0 0 0 0 0 0 0 0 0 0 0
ST_mem_lat_dist  0 0 0 0 0 0 0 0 0 0 0 0 0 0 0 0 0 0 0 0 0 0 0 0 0 0 0
----------------------------Interconnect-DETAILS--------------------------------
Class 0:
Packet latency average = 6.49164
	minimum = 5
	maximum = 39
Network latency average = 6.42266
	minimum = 5
	maximum = 39
Slowest packet = 211260
Flit latency average = 6.37795
	minimum = 5
	maximum = 39
Slowest flit = 216178
Fragmentation average = 0
	minimum = 0
	maximum = 0
Injected packet rate average = 0.0621446
	minimum = 0.0222406 (at node 10)
	maximum = 0.112069 (at node 23)
Accepted packet rate average = 0.0621446
	minimum = 0.0283887 (at node 15)
	maximum = 0.109016 (at node 8)
Injected flit rate average = 0.0637615
	minimum = 0.0247988 (at node 11)
	maximum = 0.112069 (at node 23)
Accepted flit rate average= 0.0637615
	minimum = 0.0318135 (at node 15)
	maximum = 0.109016 (at node 8)
Injected packet length average = 1.02602
Accepted packet length average = 1.02602
Total in-flight flits = 0 (0 measured)
====== Overall Traffic Statistics ======
====== Traffic class 0 ======
Packet latency average = 6.4412 (5 samples)
	minimum = 5 (5 samples)
	maximum = 45.8 (5 samples)
Network latency average = 6.37235 (5 samples)
	minimum = 5 (5 samples)
	maximum = 45.8 (5 samples)
Flit latency average = 6.32485 (5 samples)
	minimum = 5 (5 samples)
	maximum = 45.8 (5 samples)
Fragmentation average = 0 (5 samples)
	minimum = 0 (5 samples)
	maximum = 0 (5 samples)
Injected packet rate average = 0.0613291 (5 samples)
	minimum = 0.0219288 (5 samples)
	maximum = 0.111026 (5 samples)
Accepted packet rate average = 0.0613291 (5 samples)
	minimum = 0.0280043 (5 samples)
	maximum = 0.111021 (5 samples)
Injected flit rate average = 0.0628814 (5 samples)
	minimum = 0.024457 (5 samples)
	maximum = 0.111026 (5 samples)
Accepted flit rate average = 0.0628814 (5 samples)
	minimum = 0.031363 (5 samples)
	maximum = 0.111021 (5 samples)
Injected packet size average = 1.02531 (5 samples)
Accepted packet size average = 1.02531 (5 samples)
Hops average = 1 (5 samples)
----------------------------END-of-Interconnect-DETAILS-------------------------


gpgpu_simulation_time = 0 days, 0 hrs, 1 min, 47 sec (107 sec)
gpgpu_simulation_rate = 587977 (inst/sec)
gpgpu_simulation_rate = 1206 (cycle/sec)
gpgpu_silicon_slowdown = 580431x
GPGPU-Sim: synchronize waiting for inactive GPU simulation
GPGPU-Sim API: Stream Manager State
GPGPU-Sim: detected inactive GPU simulation thread
GPGPU-Sim: *** exit detected ***
