

        *** GPGPU-Sim Simulator Version 4.0.0  [build gpgpu-sim_git-commit-90ec3399763d7c8512cfe7dc193473086c38ca38_modified_0.0] ***


GPGPU-Sim PTX: simulation mode 0 (can change with PTX_SIM_MODE_FUNC environment variable:
               1=functional simulation only, 0=detailed performance simulator)
GPGPU-Sim PTX: overriding embedded ptx with ptx file (PTX_SIM_USE_PTX_FILE is set)
GPGPU-Sim: Configuration options:

-save_embedded_ptx                      0 # saves ptx files embedded in binary as <n>.ptx
-keep                                   0 # keep intermediate files created by GPGPU-Sim when interfacing with external programs
-gpgpu_ptx_save_converted_ptxplus                    0 # Saved converted ptxplus to a file
-gpgpu_occupancy_sm_number                   62 # The SM number to pass to ptxas when getting register usage for computing GPU occupancy. This parameter is required in the config.
-ptx_opcode_latency_int      4,13,4,5,145,32 # Opcode latencies for integers <ADD,MAX,MUL,MAD,DIV,SHFL>Default 1,1,19,25,145,32
-ptx_opcode_latency_fp          4,13,4,4,39 # Opcode latencies for single precision floating points <ADD,MAX,MUL,MAD,DIV>Default 1,1,1,1,30
-ptx_opcode_latency_dp         8,19,8,8,330 # Opcode latencies for double precision floating points <ADD,MAX,MUL,MAD,DIV>Default 8,8,8,8,335
-ptx_opcode_latency_sfu                   20 # Opcode latencies for SFU instructionsDefault 8
-ptx_opcode_latency_tesnor                   64 # Opcode latencies for Tensor instructionsDefault 64
-ptx_opcode_initiation_int          1,1,1,1,4,4 # Opcode initiation intervals for integers <ADD,MAX,MUL,MAD,DIV,SHFL>Default 1,1,4,4,32,4
-ptx_opcode_initiation_fp            1,2,1,1,4 # Opcode initiation intervals for single precision floating points <ADD,MAX,MUL,MAD,DIV>Default 1,1,1,1,5
-ptx_opcode_initiation_dp          8,8,8,8,130 # Opcode initiation intervals for double precision floating points <ADD,MAX,MUL,MAD,DIV>Default 8,8,8,8,130
-ptx_opcode_initiation_sfu                    4 # Opcode initiation intervals for sfu instructionsDefault 8
-ptx_opcode_initiation_tensor                   64 # Opcode initiation intervals for tensor instructionsDefault 64
-cdp_latency         7200,8000,100,12000,1600 # CDP API latency <cudaStreamCreateWithFlags, cudaGetParameterBufferV2_init_perWarp, cudaGetParameterBufferV2_perKernel, cudaLaunchDeviceV2_init_perWarp, cudaLaunchDevicV2_perKernel>Default 7200,8000,100,12000,1600
-network_mode                           1 # Interconnection network mode
-inter_config_file   config_pascal_islip.icnt # Interconnection network config file
-icnt_in_buffer_limit                   64 # in_buffer_limit
-icnt_out_buffer_limit                   64 # out_buffer_limit
-icnt_subnets                           2 # subnets
-icnt_arbiter_algo                      1 # arbiter_algo
-icnt_verbose                           0 # inct_verbose
-icnt_grant_cycles                      1 # grant_cycles
-gpgpu_ptx_use_cuobjdump                    1 # Use cuobjdump to extract ptx and sass from binaries
-gpgpu_experimental_lib_support                    0 # Try to extract code from cuda libraries [Broken because of unknown cudaGetExportTable]
-checkpoint_option                      0 #  checkpointing flag (0 = no checkpoint)
-checkpoint_kernel                      1 #  checkpointing during execution of which kernel (1- 1st kernel)
-checkpoint_CTA                         0 #  checkpointing after # of CTA (< less than total CTA)
-resume_option                          0 #  resume flag (0 = no resume)
-resume_kernel                          0 #  Resume from which kernel (1= 1st kernel)
-resume_CTA                             0 #  resume from which CTA 
-checkpoint_CTA_t                       0 #  resume from which CTA 
-checkpoint_insn_Y                      0 #  resume from which CTA 
-gpgpu_ptx_convert_to_ptxplus                    0 # Convert SASS (native ISA) to ptxplus and run ptxplus
-gpgpu_ptx_force_max_capability                   61 # Force maximum compute capability
-gpgpu_ptx_inst_debug_to_file                    0 # Dump executed instructions' debug information to file
-gpgpu_ptx_inst_debug_file       inst_debug.txt # Executed instructions' debug output file
-gpgpu_ptx_inst_debug_thread_uid                    1 # Thread UID for executed instructions' debug output
-gpgpu_simd_model                       1 # 1 = post-dominator
-gpgpu_shader_core_pipeline              2048:32 # shader core pipeline config, i.e., {<nthread>:<warpsize>}
-gpgpu_tex_cache:l1  N:16:128:24,L:R:m:N:L,T:128:4,128:2 # per-shader L1 texture cache  (READ-ONLY) config  {<nsets>:<bsize>:<assoc>,<rep>:<wr>:<alloc>:<wr_alloc>,<mshr>:<N>:<merge>,<mq>:<rf>}
-gpgpu_const_cache:l1 N:128:64:2,L:R:f:N:L,S:2:64,4 # per-shader L1 constant memory cache  (READ-ONLY) config  {<nsets>:<bsize>:<assoc>,<rep>:<wr>:<alloc>:<wr_alloc>,<mshr>:<N>:<merge>,<mq>} 
-gpgpu_cache:il1     N:8:128:4,L:R:f:N:L,S:2:48,4 # shader L1 instruction cache config  {<nsets>:<bsize>:<assoc>,<rep>:<wr>:<alloc>:<wr_alloc>,<mshr>:<N>:<merge>,<mq>} 
-gpgpu_cache:dl1     S:4:128:96,L:L:s:N:L,A:256:8,16:0,32 # per-shader L1 data cache config  {<nsets>:<bsize>:<assoc>,<rep>:<wr>:<alloc>:<wr_alloc>,<mshr>:<N>:<merge>,<mq> | none}
-gpgpu_l1_banks                         2 # The number of L1 cache banks
-gpgpu_l1_banks_byte_interleaving                   32 # l1 banks byte interleaving granularity
-gpgpu_l1_banks_hashing_function                    0 # l1 banks hashing function
-gpgpu_l1_latency                      82 # L1 Hit Latency
-gpgpu_smem_latency                    24 # smem Latency
-gpgpu_cache:dl1PrefL1 S:4:128:96,L:L:s:N:L,A:256:8,16:0,32 # per-shader L1 data cache config  {<nsets>:<bsize>:<assoc>,<rep>:<wr>:<alloc>:<wr_alloc>,<mshr>:<N>:<merge>,<mq> | none}
-gpgpu_cache:dl1PrefShared S:4:128:96,L:L:s:N:L,A:256:8,16:0,32 # per-shader L1 data cache config  {<nsets>:<bsize>:<assoc>,<rep>:<wr>:<alloc>:<wr_alloc>,<mshr>:<N>:<merge>,<mq> | none}
-gpgpu_gmem_skip_L1D                    1 # global memory access skip L1D cache (implements -Xptxas -dlcm=cg, default=no skip)
-gpgpu_perfect_mem                      0 # enable perfect memory mode (no cache miss)
-n_regfile_gating_group                    4 # group of lanes that should be read/written together)
-gpgpu_clock_gated_reg_file                    0 # enable clock gated reg file for power calculations
-gpgpu_clock_gated_lanes                    0 # enable clock gated lanes for power calculations
-gpgpu_shader_registers                65536 # Number of registers per shader core. Limits number of concurrent CTAs. (default 8192)
-gpgpu_registers_per_block                 8192 # Maximum number of registers per CTA. (default 8192)
-gpgpu_ignore_resources_limitation                    1 # gpgpu_ignore_resources_limitation (default 0)
-gpgpu_shader_cta                      32 # Maximum number of concurrent CTAs in shader (default 8)
-gpgpu_num_cta_barriers                   16 # Maximum number of named barriers per CTA (default 16)
-gpgpu_n_clusters                      28 # number of processing clusters
-gpgpu_n_cores_per_cluster                    1 # number of simd cores per cluster
-gpgpu_n_cluster_ejection_buffer_size                   32 # number of packets in ejection buffer
-gpgpu_n_ldst_response_buffer_size                    2 # number of response packets in ld/st unit ejection buffer
-gpgpu_shmem_per_block                49152 # Size of shared memory per thread block or CTA (default 48kB)
-gpgpu_shmem_size                   98304 # Size of shared memory per shader core (default 16kB)
-gpgpu_adaptive_cache_config                    0 # adaptive_cache_config
-gpgpu_shmem_sizeDefault                98304 # Size of shared memory per shader core (default 16kB)
-gpgpu_shmem_size_PrefL1                98304 # Size of shared memory per shader core (default 16kB)
-gpgpu_shmem_size_PrefShared                98304 # Size of shared memory per shader core (default 16kB)
-gpgpu_shmem_num_banks                   32 # Number of banks in the shared memory in each shader core (default 16)
-gpgpu_shmem_limited_broadcast                    0 # Limit shared memory to do one broadcast per cycle (default on)
-gpgpu_shmem_warp_parts                    1 # Number of portions a warp is divided into for shared memory bank conflict check 
-gpgpu_mem_unit_ports                    1 # The number of memory transactions allowed per core cycle
-gpgpu_shmem_warp_parts                    1 # Number of portions a warp is divided into for shared memory bank conflict check 
-gpgpu_warpdistro_shader                   -1 # Specify which shader core to collect the warp size distribution from
-gpgpu_warp_issue_shader                    0 # Specify which shader core to collect the warp issue distribution from
-gpgpu_local_mem_map                    1 # Mapping from local memory space address to simulated GPU physical address space (default = enabled)
-gpgpu_num_reg_banks                   16 # Number of register banks (default = 8)
-gpgpu_reg_bank_use_warp_id                    0 # Use warp ID in mapping registers to banks (default = off)
-gpgpu_sub_core_model                    1 # Sub Core Volta/Pascal model (default = off)
-gpgpu_enable_specialized_operand_collector                    0 # enable_specialized_operand_collector
-gpgpu_operand_collector_num_units_sp                    4 # number of collector units (default = 4)
-gpgpu_operand_collector_num_units_dp                    0 # number of collector units (default = 0)
-gpgpu_operand_collector_num_units_sfu                    4 # number of collector units (default = 4)
-gpgpu_operand_collector_num_units_int                    0 # number of collector units (default = 0)
-gpgpu_operand_collector_num_units_tensor_core                    4 # number of collector units (default = 4)
-gpgpu_operand_collector_num_units_mem                    2 # number of collector units (default = 2)
-gpgpu_operand_collector_num_units_gen                    8 # number of collector units (default = 0)
-gpgpu_operand_collector_num_in_ports_sp                    1 # number of collector unit in ports (default = 1)
-gpgpu_operand_collector_num_in_ports_dp                    0 # number of collector unit in ports (default = 0)
-gpgpu_operand_collector_num_in_ports_sfu                    1 # number of collector unit in ports (default = 1)
-gpgpu_operand_collector_num_in_ports_int                    0 # number of collector unit in ports (default = 0)
-gpgpu_operand_collector_num_in_ports_tensor_core                    1 # number of collector unit in ports (default = 1)
-gpgpu_operand_collector_num_in_ports_mem                    1 # number of collector unit in ports (default = 1)
-gpgpu_operand_collector_num_in_ports_gen                    8 # number of collector unit in ports (default = 0)
-gpgpu_operand_collector_num_out_ports_sp                    1 # number of collector unit in ports (default = 1)
-gpgpu_operand_collector_num_out_ports_dp                    0 # number of collector unit in ports (default = 0)
-gpgpu_operand_collector_num_out_ports_sfu                    1 # number of collector unit in ports (default = 1)
-gpgpu_operand_collector_num_out_ports_int                    0 # number of collector unit in ports (default = 0)
-gpgpu_operand_collector_num_out_ports_tensor_core                    1 # number of collector unit in ports (default = 1)
-gpgpu_operand_collector_num_out_ports_mem                    1 # number of collector unit in ports (default = 1)
-gpgpu_operand_collector_num_out_ports_gen                    8 # number of collector unit in ports (default = 0)
-gpgpu_coalesce_arch                   61 # Coalescing arch (GT200 = 13, Fermi = 20)
-gpgpu_num_sched_per_core                    4 # Number of warp schedulers per core
-gpgpu_max_insn_issue_per_warp                    2 # Max number of instructions that can be issued per warp in one cycle by scheduler (either 1 or 2)
-gpgpu_dual_issue_diff_exec_units                    1 # should dual issue use two different execution unit resources (Default = 1)
-gpgpu_simt_core_sim_order                    1 # Select the simulation order of cores in a cluster (0=Fix, 1=Round-Robin)
-gpgpu_pipeline_widths 4,0,0,4,4,4,0,0,4,4,8 # Pipeline widths ID_OC_SP,ID_OC_DP,ID_OC_INT,ID_OC_SFU,ID_OC_MEM,OC_EX_SP,OC_EX_DP,OC_EX_INT,OC_EX_SFU,OC_EX_MEM,EX_WB,ID_OC_TENSOR_CORE,OC_EX_TENSOR_CORE
-gpgpu_tensor_core_avail                    0 # Tensor Core Available (default=0)
-gpgpu_num_sp_units                     4 # Number of SP units (default=1)
-gpgpu_num_dp_units                     0 # Number of DP units (default=0)
-gpgpu_num_int_units                    0 # Number of INT units (default=0)
-gpgpu_num_sfu_units                    4 # Number of SF units (default=1)
-gpgpu_num_tensor_core_units                    0 # Number of tensor_core units (default=1)
-gpgpu_num_mem_units                    1 # Number if ldst units (default=1) WARNING: not hooked up to anything
-gpgpu_scheduler     two_level_active:6:0:1 # Scheduler configuration: < lrr | gto | two_level_active > If two_level_active:<num_active_warps>:<inner_prioritization>:<outer_prioritization>For complete list of prioritization values see shader.h enum scheduler_prioritization_typeDefault: gto
-gpgpu_concurrent_kernel_sm                    0 # Support concurrent kernels on a SM (default = disabled)
-gpgpu_perfect_inst_const_cache                    1 # perfect inst and const cache mode, so all inst and const hits in the cache(default = disabled)
-gpgpu_inst_fetch_throughput                    8 # the number of fetched intruction per warp each cycle
-gpgpu_reg_file_port_throughput                    2 # the number ports of the register file
-specialized_unit_1         0,4,4,4,4,BRA # specialized unit config {<enabled>,<num_units>:<latency>:<initiation>,<ID_OC_SPEC>:<OC_EX_SPEC>,<NAME>}
-specialized_unit_2         0,4,4,4,4,BRA # specialized unit config {<enabled>,<num_units>:<latency>:<initiation>,<ID_OC_SPEC>:<OC_EX_SPEC>,<NAME>}
-specialized_unit_3         0,4,4,4,4,BRA # specialized unit config {<enabled>,<num_units>:<latency>:<initiation>,<ID_OC_SPEC>:<OC_EX_SPEC>,<NAME>}
-specialized_unit_4         0,4,4,4,4,BRA # specialized unit config {<enabled>,<num_units>:<latency>:<initiation>,<ID_OC_SPEC>:<OC_EX_SPEC>,<NAME>}
-specialized_unit_5         0,4,4,4,4,BRA # specialized unit config {<enabled>,<num_units>:<latency>:<initiation>,<ID_OC_SPEC>:<OC_EX_SPEC>,<NAME>}
-specialized_unit_6         0,4,4,4,4,BRA # specialized unit config {<enabled>,<num_units>:<latency>:<initiation>,<ID_OC_SPEC>:<OC_EX_SPEC>,<NAME>}
-specialized_unit_7         0,4,4,4,4,BRA # specialized unit config {<enabled>,<num_units>:<latency>:<initiation>,<ID_OC_SPEC>:<OC_EX_SPEC>,<NAME>}
-specialized_unit_8         0,4,4,4,4,BRA # specialized unit config {<enabled>,<num_units>:<latency>:<initiation>,<ID_OC_SPEC>:<OC_EX_SPEC>,<NAME>}
-gpgpu_perf_sim_memcpy                    1 # Fill the L2 cache on memcpy
-gpgpu_simple_dram_model                    0 # simple_dram_model with fixed latency and BW
-gpgpu_dram_scheduler                    1 # 0 = fifo, 1 = FR-FCFS (defaul)
-gpgpu_dram_partition_queues          32:32:32:32 # i2$:$2d:d2$:$2i
-l2_ideal                               0 # Use a ideal L2 cache that always hit
-gpgpu_cache:dl2     S:64:128:16,L:B:m:L:P,A:256:64,16:0,32 # unified banked L2 data cache config  {<nsets>:<bsize>:<assoc>,<rep>:<wr>:<alloc>:<wr_alloc>,<mshr>:<N>:<merge>,<mq>}
-gpgpu_cache:dl2_texture_only                    0 # L2 cache used for texture only
-gpgpu_n_mem                           12 # number of memory modules (e.g. memory controllers) in gpu
-gpgpu_n_sub_partition_per_mchannel                    2 # number of memory subpartition in each memory module
-gpgpu_n_mem_per_ctrlr                    1 # number of memory chips per memory controller
-gpgpu_memlatency_stat                   14 # track and display latency statistics 0x2 enables MC, 0x4 enables queue logs
-gpgpu_frfcfs_dram_sched_queue_size                   64 # 0 = unlimited (default); # entries per chip
-gpgpu_dram_return_queue_size                   64 # 0 = unlimited (default); # entries per chip
-gpgpu_dram_buswidth                    4 # default = 4 bytes (8 bytes per cycle at DDR)
-gpgpu_dram_burst_length                    8 # Burst length of each DRAM request (default = 4 data bus cycle)
-dram_data_command_freq_ratio                    4 # Frequency ratio between DRAM data bus and command bus (default = 2 times, i.e. DDR)
-gpgpu_dram_timing_opt nbk=16:CCD=2:RRD=8:RCD=16:RAS=37:RP=16:RC=52: CL=16:WL=6:CDLR=7:WR=16:nbkgrp=4:CCDL=4:RTPL=3 # DRAM timing parameters = {nbk:tCCD:tRRD:tRCD:tRAS:tRP:tRC:CL:WL:tCDLR:tWR:nbkgrp:tCCDL:tRTPL}
-gpgpu_l2_rop_latency                  120 # ROP queue latency (default 85)
-dram_latency                         100 # DRAM latency (default 30)
-dram_dual_bus_interface                    0 # dual_bus_interface (default = 0) 
-dram_bnk_indexing_policy                    0 # dram_bnk_indexing_policy (0 = normal indexing, 1 = Xoring with the higher bits) (Default = 0)
-dram_bnkgrp_indexing_policy                    1 # dram_bnkgrp_indexing_policy (0 = take higher bits, 1 = take lower bits) (Default = 0)
-dram_seperate_write_queue_enable                    0 # Seperate_Write_Queue_Enable
-dram_write_queue_size             32:28:16 # Write_Queue_Size
-dram_elimnate_rw_turnaround                    0 # elimnate_rw_turnaround i.e set tWTR and tRTW = 0
-icnt_flit_size                        40 # icnt_flit_size
-gpgpu_mem_addr_mapping dramid@8;00000000.00000000.00000000.00000000.0000RRRR.RRRRRRRR.RBBBCCCC.BCCSSSSS # mapping memory address to dram model {dramid@<start bit>;<memory address map>}
-gpgpu_mem_addr_test                    0 # run sweep test to check address mapping for aliased address
-gpgpu_mem_address_mask                    1 # 0 = old addressing mask, 1 = new addressing mask, 2 = new add. mask + flipped bank sel and chip sel bits
-gpgpu_memory_partition_indexing                    4 # 0 = no indexing, 1 = bitwise xoring, 2 = IPoly, 3 = custom indexing
-gpuwattch_xml_file         gpuwattch.xml # GPUWattch XML file
-power_simulation_enabled                    1 # Turn on power simulator (1=On, 0=Off)
-power_per_cycle_dump                    0 # Dump detailed power output each cycle
-power_trace_enabled                    0 # produce a file for the power trace (1=On, 0=Off)
-power_trace_zlevel                     6 # Compression level of the power trace output log (0=no comp, 9=highest)
-steady_power_levels_enabled                    0 # produce a file for the steady power levels (1=On, 0=Off)
-steady_state_definition                  8:4 # allowed deviation:number of samples
-gpgpu_max_cycle                        0 # terminates gpu simulation early (0 = no limit)
-gpgpu_max_insn                         0 # terminates gpu simulation early (0 = no limit)
-gpgpu_max_cta                          0 # terminates gpu simulation early (0 = no limit)
-gpgpu_max_completed_cta                    0 # terminates gpu simulation early (0 = no limit)
-gpgpu_runtime_stat                   500 # display runtime statistics such as dram utilization {<freq>:<flag>}
-liveness_message_freq                    1 # Minimum number of seconds between simulation liveness messages (0 = always print)
-gpgpu_compute_capability_major                    6 # Major compute capability version number
-gpgpu_compute_capability_minor                    1 # Minor compute capability version number
-gpgpu_flush_l1_cache                    1 # Flush L1 cache at the end of each kernel call
-gpgpu_flush_l2_cache                    0 # Flush L2 cache at the end of each kernel call
-gpgpu_deadlock_detect                    1 # Stop the simulation at deadlock (1=on (default), 0=off)
-gpgpu_ptx_instruction_classification                    0 # if enabled will classify ptx instruction types per kernel (Max 255 kernels now)
-gpgpu_ptx_sim_mode                     0 # Select between Performance (default) or Functional simulation (1)
-gpgpu_clock_domains 1417.0:1417.0:1417.0:2500.0 # Clock Domain Frequencies in MhZ {<Core Clock>:<ICNT Clock>:<L2 Clock>:<DRAM Clock>}
-gpgpu_max_concurrent_kernel                    8 # maximum kernels that can run concurrently on GPU
-gpgpu_cflog_interval                    0 # Interval between each snapshot in control flow logger
-visualizer_enabled                     0 # Turn on visualizer output (1=On, 0=Off)
-visualizer_outputfile                 NULL # Specifies the output log file for visualizer
-visualizer_zlevel                      6 # Compression level of the visualizer output log (0=no comp, 9=highest)
-gpgpu_stack_size_limit                 1024 # GPU thread stack size
-gpgpu_heap_size_limit              8388608 # GPU malloc heap size 
-gpgpu_runtime_sync_depth_limit                    2 # GPU device runtime synchronize depth
-gpgpu_runtime_pending_launch_count_limit                 2048 # GPU device runtime pending launch count
-trace_enabled                          0 # Turn on traces
-trace_components                    none # comma seperated list of traces to enable. Complete list found in trace_streams.tup. Default none
-trace_sampling_core                    0 # The core which is printed using CORE_DPRINTF. Default 0
-trace_sampling_memory_partition                   -1 # The memory partition which is printed using MEMPART_DPRINTF. Default -1 (i.e. all)
-enable_ptx_file_line_stats                    1 # Turn on PTX source line statistic profiling. (1 = On)
-ptx_line_stats_filename gpgpu_inst_stats.txt # Output file for PTX source line statistics.
-gpgpu_kernel_launch_latency                 5000 # Kernel launch latency in cycles. Default: 0
-gpgpu_cdp_enabled                      0 # Turn on CDP
-gpgpu_TB_launch_latency                    0 # thread block launch latency in cycles. Default: 0
DRAM Timing Options:
nbk                                    16 # number of banks
CCD                                     2 # column to column delay
RRD                                     8 # minimal delay between activation of rows in different banks
RCD                                    16 # row to column delay
RAS                                    37 # time needed to activate row
RP                                     16 # time needed to precharge (deactivate) row
RC                                     52 # row cycle time
CDLR                                    7 # switching from write to read (changes tWTR)
WR                                     16 # last data-in to row precharge
CL                                     16 # CAS latency
WL                                      6 # Write latency
nbkgrp                                  4 # number of bank groups
CCDL                                    4 # column to column delay between accesses to different bank groups
RTPL                                    3 # read to precharge delay between accesses to different bank groups
Total number of memory sub partition = 24
addr_dec_mask[CHIP]  = 0000000000000000 	high:64 low:0
addr_dec_mask[BK]    = 0000000000007080 	high:15 low:7
addr_dec_mask[ROW]   = 000000000fff8000 	high:28 low:15
addr_dec_mask[COL]   = 0000000000000f7f 	high:12 low:0
addr_dec_mask[BURST] = 000000000000001f 	high:5 low:0
sub_partition_id_mask = 0000000000000080
GPGPU-Sim uArch: clock freqs: 1417000000.000000:1417000000.000000:1417000000.000000:2500000000.000000
GPGPU-Sim uArch: clock periods: 0.00000000070571630205:0.00000000070571630205:0.00000000070571630205:0.00000000040000000000
*** Initializing Memory Statistics ***
GPGPU-Sim uArch: interconnect node map (shaderID+MemID to icntID)
GPGPU-Sim uArch: Memory nodes ID start from index: 28
GPGPU-Sim uArch:    0   1   2   3   4   5   6
GPGPU-Sim uArch:    7   8   9  10  11  12  13
GPGPU-Sim uArch:   14  15  16  17  18  19  20
GPGPU-Sim uArch:   21  22  23  24  25  26  27
GPGPU-Sim uArch:   28  29  30  31  32  33  34
GPGPU-Sim uArch:   35  36  37  38  39  40  41
GPGPU-Sim uArch:   42  43  44  45  46  47  48
GPGPU-Sim uArch:   49  50  51
GPGPU-Sim uArch: interconnect node reverse map (icntID to shaderID+MemID)
GPGPU-Sim uArch: Memory nodes start from ID: 28
GPGPU-Sim uArch:    0   1   2   3   4   5   6
GPGPU-Sim uArch:    7   8   9  10  11  12  13
GPGPU-Sim uArch:   14  15  16  17  18  19  20
GPGPU-Sim uArch:   21  22  23  24  25  26  27
GPGPU-Sim uArch:   28  29  30  31  32  33  34
GPGPU-Sim uArch:   35  36  37  38  39  40  41
GPGPU-Sim uArch:   42  43  44  45  46  47  48
GPGPU-Sim uArch:   49  50  51
97ae2fab7f6232ea95cbcd030f0fdc0b  /home/ishan/COA/Lab4/gpu-rodinia/cuda/pathfinder/a.out
Extracting PTX file and ptxas options    1: a.1.sm_52.ptx -arch=sm_52
GPGPU-Sim uArch: performance model initialization complete.
self exe links to: /home/ishan/COA/Lab4/gpu-rodinia/cuda/pathfinder/a.out
self exe links to: /home/ishan/COA/Lab4/gpu-rodinia/cuda/pathfinder/a.out
11.0
GPGPU-Sim PTX: __cudaRegisterFatBinary, fat_cubin_handle = 1, filename=default
self exe links to: /home/ishan/COA/Lab4/gpu-rodinia/cuda/pathfinder/a.out
Running md5sum using "md5sum /home/ishan/COA/Lab4/gpu-rodinia/cuda/pathfinder/a.out "
self exe links to: /home/ishan/COA/Lab4/gpu-rodinia/cuda/pathfinder/a.out
Extracting specific PTX file named a.1.sm_52.ptx 
GPGPU-Sim PTX: __cudaRegisterFunction _Z14dynproc_kerneliPiS_S_iiii : hostFun 0x0x5573515f6ba4, fat_cubin_handle = 1
GPGPU-Sim PTX: Parsing a.1.sm_52.ptx
GPGPU-Sim PTX: allocating shared region for "_ZZ14dynproc_kerneliPiS_S_iiiiE4prev" from 0x0 to 0x400 (shared memory space)
GPGPU-Sim PTX: allocating shared region for "_ZZ14dynproc_kerneliPiS_S_iiiiE6result" from 0x400 to 0x800 (shared memory space)
GPGPU-Sim PTX: instruction assembly for function '_Z14dynproc_kerneliPiS_S_iiii'...   done.
GPGPU-Sim PTX: finished parsing EMBEDDED .ptx file a.1.sm_52.ptx
GPGPU-Sim PTX: loading globals with explicit initializers... 
GPGPU-Sim PTX: finished loading globals (0 bytes total).
GPGPU-Sim PTX: loading constants with explicit initializers...  done.
GPGPU-Sim PTX: Loading PTXInfo from a.1.sm_52.ptx
GPGPU-Sim PTX: Kernel '_Z14dynproc_kerneliPiS_S_iiii' : regs=18, lmem=0, smem=2048, cmem=368
pyramidHeight: 20
gridSize: [10000]
border:[20]
blockSize: 256
blockGrid:[47]
targetBlock:[216]
GPGPU-Sim PTX: Setting up arguments for 4 bytes starting at 0x7ffffd92984c..
GPGPU-Sim PTX: Setting up arguments for 8 bytes starting at 0x7ffffd929840..
GPGPU-Sim PTX: Setting up arguments for 8 bytes starting at 0x7ffffd929838..
GPGPU-Sim PTX: Setting up arguments for 8 bytes starting at 0x7ffffd929830..
GPGPU-Sim PTX: Setting up arguments for 4 bytes starting at 0x7ffffd929848..
GPGPU-Sim PTX: Setting up arguments for 4 bytes starting at 0x7ffffd92982c..
GPGPU-Sim PTX: Setting up arguments for 4 bytes starting at 0x7ffffd9298e0..
GPGPU-Sim PTX: Setting up arguments for 4 bytes starting at 0x7ffffd9298e8..

GPGPU-Sim PTX: cudaLaunch for 0x0x5573515f6ba4 (mode=performance simulation) on stream 0
GPGPU-Sim PTX: finding reconvergence points for '_Z14dynproc_kerneliPiS_S_iiii'...
GPGPU-Sim PTX: Finding dominators for '_Z14dynproc_kerneliPiS_S_iiii'...
GPGPU-Sim PTX: Finding immediate dominators for '_Z14dynproc_kerneliPiS_S_iiii'...
GPGPU-Sim PTX: Finding postdominators for '_Z14dynproc_kerneliPiS_S_iiii'...
GPGPU-Sim PTX: Finding immediate postdominators for '_Z14dynproc_kerneliPiS_S_iiii'...
GPGPU-Sim PTX: pre-decoding instructions for '_Z14dynproc_kerneliPiS_S_iiii'...
GPGPU-Sim PTX: reconvergence points for _Z14dynproc_kerneliPiS_S_iiii...
GPGPU-Sim PTX:  1 (potential) branch divergence @  PC=0x0c0 (a.1.sm_52.ptx:61) @!%p3 bra BB0_2;
GPGPU-Sim PTX:    immediate post dominator      @  PC=0x110 (a.1.sm_52.ptx:75) bar.sync 0;
GPGPU-Sim PTX:  2 (potential) branch divergence @  PC=0x0c8 (a.1.sm_52.ptx:62) bra.uni BB0_1;
GPGPU-Sim PTX:    immediate post dominator      @  PC=0x0d0 (a.1.sm_52.ptx:65) cvta.to.global.u64 %rd4, %rd2;
GPGPU-Sim PTX:  3 (potential) branch divergence @  PC=0x120 (a.1.sm_52.ptx:77) @%p4 bra BB0_10;
GPGPU-Sim PTX:    immediate post dominator      @  PC=0x338 (a.1.sm_52.ptx:157) and.b16 %rs6, %rs8, 255;
GPGPU-Sim PTX:  4 (potential) branch divergence @  PC=0x208 (a.1.sm_52.ptx:109) @!%p12 bra BB0_6;
GPGPU-Sim PTX:    immediate post dominator      @  PC=0x2b8 (a.1.sm_52.ptx:135) bar.sync 0;
GPGPU-Sim PTX:  5 (potential) branch divergence @  PC=0x210 (a.1.sm_52.ptx:110) bra.uni BB0_5;
GPGPU-Sim PTX:    immediate post dominator      @  PC=0x218 (a.1.sm_52.ptx:113) ld.shared.u32 %r70, [%r2];
GPGPU-Sim PTX:  6 (potential) branch divergence @  PC=0x2c8 (a.1.sm_52.ptx:137) @%p15 bra BB0_10;
GPGPU-Sim PTX:    immediate post dominator      @  PC=0x338 (a.1.sm_52.ptx:157) and.b16 %rs6, %rs8, 255;
GPGPU-Sim PTX:  7 (potential) branch divergence @  PC=0x2d8 (a.1.sm_52.ptx:140) @%p16 bra BB0_9;
GPGPU-Sim PTX:    immediate post dominator      @  PC=0x310 (a.1.sm_52.ptx:150) bar.sync 0;
GPGPU-Sim PTX:  8 (potential) branch divergence @  PC=0x330 (a.1.sm_52.ptx:154) @%p17 bra BB0_4;
GPGPU-Sim PTX:    immediate post dominator      @  PC=0x338 (a.1.sm_52.ptx:157) and.b16 %rs6, %rs8, 255;
GPGPU-Sim PTX:  9 (potential) branch divergence @  PC=0x348 (a.1.sm_52.ptx:159) @%p18 bra BB0_12;
GPGPU-Sim PTX:    immediate post dominator      @  PC=0x390 (a.1.sm_52.ptx:171) ret;
GPGPU-Sim PTX: ... end of reconvergence points for _Z14dynproc_kerneliPiS_S_iiii
GPGPU-Sim PTX: ... done pre-decoding instructions for '_Z14dynproc_kerneliPiS_S_iiii'.
GPGPU-Sim PTX: pushing kernel '_Z14dynproc_kerneliPiS_S_iiii' to stream 0, gridDim= (47,1,1) blockDim = (256,1,1) 
GPGPU-Sim uArch: Shader 0 bind to kernel 1 '_Z14dynproc_kerneliPiS_S_iiii'
GPGPU-Sim uArch: CTA/core = 8, limited by: threads
GPGPU-Sim uArch: Shader 1 bind to kernel 1 '_Z14dynproc_kerneliPiS_S_iiii'
GPGPU-Sim uArch: Shader 2 bind to kernel 1 '_Z14dynproc_kerneliPiS_S_iiii'
GPGPU-Sim uArch: Shader 3 bind to kernel 1 '_Z14dynproc_kerneliPiS_S_iiii'
GPGPU-Sim uArch: Shader 4 bind to kernel 1 '_Z14dynproc_kerneliPiS_S_iiii'
GPGPU-Sim uArch: Shader 5 bind to kernel 1 '_Z14dynproc_kerneliPiS_S_iiii'
GPGPU-Sim uArch: Shader 6 bind to kernel 1 '_Z14dynproc_kerneliPiS_S_iiii'
GPGPU-Sim uArch: Shader 7 bind to kernel 1 '_Z14dynproc_kerneliPiS_S_iiii'
GPGPU-Sim uArch: Shader 8 bind to kernel 1 '_Z14dynproc_kerneliPiS_S_iiii'
GPGPU-Sim uArch: Shader 9 bind to kernel 1 '_Z14dynproc_kerneliPiS_S_iiii'
GPGPU-Sim uArch: Shader 10 bind to kernel 1 '_Z14dynproc_kerneliPiS_S_iiii'
GPGPU-Sim uArch: Shader 11 bind to kernel 1 '_Z14dynproc_kerneliPiS_S_iiii'
GPGPU-Sim uArch: Shader 12 bind to kernel 1 '_Z14dynproc_kerneliPiS_S_iiii'
GPGPU-Sim uArch: Shader 13 bind to kernel 1 '_Z14dynproc_kerneliPiS_S_iiii'
GPGPU-Sim uArch: Shader 14 bind to kernel 1 '_Z14dynproc_kerneliPiS_S_iiii'
GPGPU-Sim uArch: Shader 15 bind to kernel 1 '_Z14dynproc_kerneliPiS_S_iiii'
GPGPU-Sim uArch: Shader 16 bind to kernel 1 '_Z14dynproc_kerneliPiS_S_iiii'
GPGPU-Sim uArch: Shader 17 bind to kernel 1 '_Z14dynproc_kerneliPiS_S_iiii'
GPGPU-Sim uArch: Shader 18 bind to kernel 1 '_Z14dynproc_kerneliPiS_S_iiii'
GPGPU-Sim uArch: Shader 19 bind to kernel 1 '_Z14dynproc_kerneliPiS_S_iiii'
GPGPU-Sim uArch: Shader 20 bind to kernel 1 '_Z14dynproc_kerneliPiS_S_iiii'
GPGPU-Sim uArch: Shader 21 bind to kernel 1 '_Z14dynproc_kerneliPiS_S_iiii'
GPGPU-Sim uArch: Shader 22 bind to kernel 1 '_Z14dynproc_kerneliPiS_S_iiii'
GPGPU-Sim uArch: Shader 23 bind to kernel 1 '_Z14dynproc_kerneliPiS_S_iiii'
GPGPU-Sim uArch: Shader 24 bind to kernel 1 '_Z14dynproc_kerneliPiS_S_iiii'
GPGPU-Sim uArch: Shader 25 bind to kernel 1 '_Z14dynproc_kerneliPiS_S_iiii'
GPGPU-Sim uArch: Shader 26 bind to kernel 1 '_Z14dynproc_kerneliPiS_S_iiii'
GPGPU-Sim uArch: Shader 27 bind to kernel 1 '_Z14dynproc_kerneliPiS_S_iiii'
Destroy streams for kernel 1: size 0
kernel_name = _Z14dynproc_kerneliPiS_S_iiii 
kernel_launch_uid = 1 
gpu_sim_cycle = 18750
gpu_sim_insn = 12710760
gpu_ipc =     677.9072
gpu_tot_sim_cycle = 18750
gpu_tot_sim_insn = 12710760
gpu_tot_ipc =     677.9072
gpu_tot_issued_cta = 47
gpu_occupancy = 20.9591% 
gpu_tot_occupancy = 20.9591% 
max_total_param_size = 0
gpu_stall_dramfull = 0
gpu_stall_icnt2sh    = 0
partiton_level_parallism =       2.0235
partiton_level_parallism_total  =       2.0235
partiton_level_parallism_util =       3.7963
partiton_level_parallism_util_total  =       3.7963
L2_BW  =      91.7521 GB/Sec
L2_BW_total  =      91.7521 GB/Sec
gpu_total_sim_rate=353076

========= Core cache stats =========
L1I_cache:
	L1I_total_cache_accesses = 0
	L1I_total_cache_misses = 0
	L1I_total_cache_pending_hits = 0
	L1I_total_cache_reservation_fails = 0
L1D_cache:
	L1D_cache_core[0]: Access = 0, Miss = 0, Miss_rate = -nan, Pending_hits = 0, Reservation_fails = 0
	L1D_cache_core[1]: Access = 0, Miss = 0, Miss_rate = -nan, Pending_hits = 0, Reservation_fails = 0
	L1D_cache_core[2]: Access = 0, Miss = 0, Miss_rate = -nan, Pending_hits = 0, Reservation_fails = 0
	L1D_cache_core[3]: Access = 0, Miss = 0, Miss_rate = -nan, Pending_hits = 0, Reservation_fails = 0
	L1D_cache_core[4]: Access = 0, Miss = 0, Miss_rate = -nan, Pending_hits = 0, Reservation_fails = 0
	L1D_cache_core[5]: Access = 0, Miss = 0, Miss_rate = -nan, Pending_hits = 0, Reservation_fails = 0
	L1D_cache_core[6]: Access = 0, Miss = 0, Miss_rate = -nan, Pending_hits = 0, Reservation_fails = 0
	L1D_cache_core[7]: Access = 0, Miss = 0, Miss_rate = -nan, Pending_hits = 0, Reservation_fails = 0
	L1D_cache_core[8]: Access = 0, Miss = 0, Miss_rate = -nan, Pending_hits = 0, Reservation_fails = 0
	L1D_cache_core[9]: Access = 0, Miss = 0, Miss_rate = -nan, Pending_hits = 0, Reservation_fails = 0
	L1D_cache_core[10]: Access = 0, Miss = 0, Miss_rate = -nan, Pending_hits = 0, Reservation_fails = 0
	L1D_cache_core[11]: Access = 0, Miss = 0, Miss_rate = -nan, Pending_hits = 0, Reservation_fails = 0
	L1D_cache_core[12]: Access = 0, Miss = 0, Miss_rate = -nan, Pending_hits = 0, Reservation_fails = 0
	L1D_cache_core[13]: Access = 0, Miss = 0, Miss_rate = -nan, Pending_hits = 0, Reservation_fails = 0
	L1D_cache_core[14]: Access = 0, Miss = 0, Miss_rate = -nan, Pending_hits = 0, Reservation_fails = 0
	L1D_cache_core[15]: Access = 0, Miss = 0, Miss_rate = -nan, Pending_hits = 0, Reservation_fails = 0
	L1D_cache_core[16]: Access = 0, Miss = 0, Miss_rate = -nan, Pending_hits = 0, Reservation_fails = 0
	L1D_cache_core[17]: Access = 0, Miss = 0, Miss_rate = -nan, Pending_hits = 0, Reservation_fails = 0
	L1D_cache_core[18]: Access = 0, Miss = 0, Miss_rate = -nan, Pending_hits = 0, Reservation_fails = 0
	L1D_cache_core[19]: Access = 0, Miss = 0, Miss_rate = -nan, Pending_hits = 0, Reservation_fails = 0
	L1D_cache_core[20]: Access = 0, Miss = 0, Miss_rate = -nan, Pending_hits = 0, Reservation_fails = 0
	L1D_cache_core[21]: Access = 0, Miss = 0, Miss_rate = -nan, Pending_hits = 0, Reservation_fails = 0
	L1D_cache_core[22]: Access = 0, Miss = 0, Miss_rate = -nan, Pending_hits = 0, Reservation_fails = 0
	L1D_cache_core[23]: Access = 0, Miss = 0, Miss_rate = -nan, Pending_hits = 0, Reservation_fails = 0
	L1D_cache_core[24]: Access = 0, Miss = 0, Miss_rate = -nan, Pending_hits = 0, Reservation_fails = 0
	L1D_cache_core[25]: Access = 0, Miss = 0, Miss_rate = -nan, Pending_hits = 0, Reservation_fails = 0
	L1D_cache_core[26]: Access = 0, Miss = 0, Miss_rate = -nan, Pending_hits = 0, Reservation_fails = 0
	L1D_cache_core[27]: Access = 0, Miss = 0, Miss_rate = -nan, Pending_hits = 0, Reservation_fails = 0
	L1D_total_cache_accesses = 0
	L1D_total_cache_misses = 0
	L1D_total_cache_pending_hits = 0
	L1D_total_cache_reservation_fails = 0
	L1D_cache_data_port_util = 0.000
	L1D_cache_fill_port_util = 0.000
L1C_cache:
	L1C_total_cache_accesses = 0
	L1C_total_cache_misses = 0
	L1C_total_cache_pending_hits = 0
	L1C_total_cache_reservation_fails = 0
L1T_cache:
	L1T_total_cache_accesses = 0
	L1T_total_cache_misses = 0
	L1T_total_cache_pending_hits = 0
	L1T_total_cache_reservation_fails = 0

Total_core_cache_stats:
	Total_core_cache_stats_breakdown[GLOBAL_ACC_R][HIT] = 0
	Total_core_cache_stats_breakdown[GLOBAL_ACC_R][HIT_RESERVED] = 0
	Total_core_cache_stats_breakdown[GLOBAL_ACC_R][MISS] = 0
	Total_core_cache_stats_breakdown[GLOBAL_ACC_R][RESERVATION_FAIL] = 0
	Total_core_cache_stats_breakdown[GLOBAL_ACC_R][SECTOR_MISS] = 0
	Total_core_cache_stats_breakdown[LOCAL_ACC_R][HIT] = 0
	Total_core_cache_stats_breakdown[LOCAL_ACC_R][HIT_RESERVED] = 0
	Total_core_cache_stats_breakdown[LOCAL_ACC_R][MISS] = 0
	Total_core_cache_stats_breakdown[LOCAL_ACC_R][RESERVATION_FAIL] = 0
	Total_core_cache_stats_breakdown[LOCAL_ACC_R][SECTOR_MISS] = 0
	Total_core_cache_stats_breakdown[CONST_ACC_R][HIT] = 0
	Total_core_cache_stats_breakdown[CONST_ACC_R][HIT_RESERVED] = 0
	Total_core_cache_stats_breakdown[CONST_ACC_R][MISS] = 0
	Total_core_cache_stats_breakdown[CONST_ACC_R][RESERVATION_FAIL] = 0
	Total_core_cache_stats_breakdown[CONST_ACC_R][SECTOR_MISS] = 0
	Total_core_cache_stats_breakdown[TEXTURE_ACC_R][HIT] = 0
	Total_core_cache_stats_breakdown[TEXTURE_ACC_R][HIT_RESERVED] = 0
	Total_core_cache_stats_breakdown[TEXTURE_ACC_R][MISS] = 0
	Total_core_cache_stats_breakdown[TEXTURE_ACC_R][RESERVATION_FAIL] = 0
	Total_core_cache_stats_breakdown[TEXTURE_ACC_R][SECTOR_MISS] = 0
	Total_core_cache_stats_breakdown[GLOBAL_ACC_W][HIT] = 0
	Total_core_cache_stats_breakdown[GLOBAL_ACC_W][HIT_RESERVED] = 0
	Total_core_cache_stats_breakdown[GLOBAL_ACC_W][MISS] = 0
	Total_core_cache_stats_breakdown[GLOBAL_ACC_W][RESERVATION_FAIL] = 0
	Total_core_cache_stats_breakdown[GLOBAL_ACC_W][SECTOR_MISS] = 0
	Total_core_cache_stats_breakdown[LOCAL_ACC_W][HIT] = 0
	Total_core_cache_stats_breakdown[LOCAL_ACC_W][HIT_RESERVED] = 0
	Total_core_cache_stats_breakdown[LOCAL_ACC_W][MISS] = 0
	Total_core_cache_stats_breakdown[LOCAL_ACC_W][RESERVATION_FAIL] = 0
	Total_core_cache_stats_breakdown[LOCAL_ACC_W][SECTOR_MISS] = 0
	Total_core_cache_stats_breakdown[L1_WRBK_ACC][HIT] = 0
	Total_core_cache_stats_breakdown[L1_WRBK_ACC][HIT_RESERVED] = 0
	Total_core_cache_stats_breakdown[L1_WRBK_ACC][MISS] = 0
	Total_core_cache_stats_breakdown[L1_WRBK_ACC][RESERVATION_FAIL] = 0
	Total_core_cache_stats_breakdown[L1_WRBK_ACC][SECTOR_MISS] = 0
	Total_core_cache_stats_breakdown[L2_WRBK_ACC][HIT] = 0
	Total_core_cache_stats_breakdown[L2_WRBK_ACC][HIT_RESERVED] = 0
	Total_core_cache_stats_breakdown[L2_WRBK_ACC][MISS] = 0
	Total_core_cache_stats_breakdown[L2_WRBK_ACC][RESERVATION_FAIL] = 0
	Total_core_cache_stats_breakdown[L2_WRBK_ACC][SECTOR_MISS] = 0
	Total_core_cache_stats_breakdown[INST_ACC_R][HIT] = 0
	Total_core_cache_stats_breakdown[INST_ACC_R][HIT_RESERVED] = 0
	Total_core_cache_stats_breakdown[INST_ACC_R][MISS] = 0
	Total_core_cache_stats_breakdown[INST_ACC_R][RESERVATION_FAIL] = 0
	Total_core_cache_stats_breakdown[INST_ACC_R][SECTOR_MISS] = 0
	Total_core_cache_stats_breakdown[L1_WR_ALLOC_R][HIT] = 0
	Total_core_cache_stats_breakdown[L1_WR_ALLOC_R][HIT_RESERVED] = 0
	Total_core_cache_stats_breakdown[L1_WR_ALLOC_R][MISS] = 0
	Total_core_cache_stats_breakdown[L1_WR_ALLOC_R][RESERVATION_FAIL] = 0
	Total_core_cache_stats_breakdown[L1_WR_ALLOC_R][SECTOR_MISS] = 0
	Total_core_cache_stats_breakdown[L2_WR_ALLOC_R][HIT] = 0
	Total_core_cache_stats_breakdown[L2_WR_ALLOC_R][HIT_RESERVED] = 0
	Total_core_cache_stats_breakdown[L2_WR_ALLOC_R][MISS] = 0
	Total_core_cache_stats_breakdown[L2_WR_ALLOC_R][RESERVATION_FAIL] = 0
	Total_core_cache_stats_breakdown[L2_WR_ALLOC_R][SECTOR_MISS] = 0

Total_core_cache_fail_stats:
ctas_completed 47, Shader 0 warp_id issue ditsribution:
warp_id:
0, 1, 2, 3, 4, 5, 6, 7, 8, 9, 10, 11, 12, 13, 14, 15, 
distro:
1245, 1246, 1245, 1245, 1246, 1245, 1246, 1246, 1244, 1246, 1245, 1246, 1246, 1246, 1246, 1245, 
gpgpu_n_tot_thrd_icount = 13941152
gpgpu_n_tot_w_icount = 435661
gpgpu_n_stall_shd_mem = 29778
gpgpu_n_mem_read_local = 0
gpgpu_n_mem_write_local = 0
gpgpu_n_mem_read_global = 36366
gpgpu_n_mem_write_global = 1574
gpgpu_n_mem_texture = 0
gpgpu_n_mem_const = 0
gpgpu_n_load_insn  = 229320
gpgpu_n_store_insn = 10000
gpgpu_n_shmem_insn = 1306720
gpgpu_n_sstarr_insn = 0
gpgpu_n_tex_insn = 0
gpgpu_n_const_mem_insn = 0
gpgpu_n_param_mem_insn = 84224
gpgpu_n_shmem_bkconflict = 0
gpgpu_n_cache_bkconflict = 0
gpgpu_n_intrawarp_mshr_merge = 0
gpgpu_n_cmem_portconflict = 0
gpgpu_stall_shd_mem[c_mem][resource_stall] = 0
gpgpu_stall_shd_mem[s_mem][bk_conf] = 0
gpgpu_stall_shd_mem[gl_mem][resource_stall] = 0
gpgpu_stall_shd_mem[gl_mem][coal_stall] = 29778
gpgpu_stall_shd_mem[gl_mem][data_port_stall] = 0
gpu_reg_bank_conflict_stalls = 0
Warp Occupancy Distribution:
Stall:7656	W0_Idle:125857	W0_Scoreboard:955575	W1:0	W2:0	W3:0	W4:0	W5:0	W6:0	W7:0	W8:0	W9:0	W10:0	W11:0	W12:3219	W13:2484	W14:2484	W15:2484	W16:2484	W17:2484	W18:2484	W19:2484	W20:3035	W21:2484	W22:2484	W23:2484	W24:2484	W25:2484	W26:2484	W27:2484	W28:2484	W29:2484	W30:2484	W31:2484	W32:384695
single_issue_nums: WS0:94231	WS1:94271	WS2:94241	WS3:93844	
dual_issue_nums: WS0:7411	WS1:7391	WS2:7406	WS3:7329	
traffic_breakdown_coretomem[GLOBAL_ACC_R] = 290928 {8:36366,}
traffic_breakdown_coretomem[GLOBAL_ACC_W] = 62960 {40:1574,}
traffic_breakdown_memtocore[GLOBAL_ACC_R] = 1454640 {40:36366,}
traffic_breakdown_memtocore[GLOBAL_ACC_W] = 12592 {8:1574,}
maxmflatency = 351 
max_icnt2mem_latency = 89 
maxmrqlatency = 58 
max_icnt2sh_latency = 49 
averagemflatency = 234 
avg_icnt2mem_latency = 13 
avg_mrq_latency = 2 
avg_icnt2sh_latency = 9 
mrq_lat_table:16157 	2351 	1681 	1476 	874 	63 	0 	0 	0 	0 	0 	0 	0 	0 	0 	0 	0 	0 	0 	0 	0 	0 	0 	0 	0 	0 	0 	0 	0 	0 	0 	0 	
dq_lat_table:0 	0 	0 	0 	0 	0 	0 	0 	0 	0 	0 	0 	0 	0 	0 	0 	0 	0 	0 	0 	0 	0 	0 	0 	0 	0 	0 	0 	0 	0 	0 	0 	
mf_lat_table:0 	0 	0 	0 	0 	0 	0 	23489 	14451 	0 	0 	0 	0 	0 	0 	0 	0 	0 	0 	0 	0 	0 	0 	0 	0 	0 	0 	0 	0 	0 	0 	0 	
icnt2mem_lat_table:0 	0 	11985 	17593 	6296 	1927 	139 	0 	0 	0 	0 	0 	0 	0 	0 	0 	0 	0 	0 	0 	0 	0 	0 	0 	
icnt2sh_lat_table:0 	0 	16493 	18482 	2825 	140 	0 	0 	0 	0 	0 	0 	0 	0 	0 	0 	0 	0 	0 	0 	0 	0 	0 	0 	
mf_lat_pw_table:0 	0 	0 	0 	0 	0 	0 	25 	2 	0 	0 	0 	0 	0 	0 	0 	0 	0 	0 	0 	0 	0 	0 	0 	0 	0 	0 	0 	0 	0 	0 	0 	
maximum concurrent accesses to same row:
dram[0]:        52        72        56        64        56        56        60        52        52        48        72        28        48        64        24        32 
dram[1]:        56        60        40        68        80        64        44        60        36        28        40        52        56        40        60        68 
dram[2]:        52        56        36        44        40        72        72        56        28        28        64        60        44        24        76        40 
dram[3]:        64        36        52        52        36        52        24        60        68        76        44        56        56        52        76        92 
dram[4]:        80        72        52        56        64        56        48        48        44        56        72        64        60        76        72        60 
dram[5]:        52        40        56        52        56        56        76        60        60        56        48        44        68        76        60        52 
dram[6]:        60        44        24        68        40        56        48        52        40        48        52        64        56        52        56        56 
dram[7]:        52        56        72        36        76        44        68        72        36        48        68        64        28        44        32        72 
dram[8]:        84        56        56        44        64        68        48        92        88        64        56        40        76        52        64        48 
dram[9]:        48        52        72        36        68        48        76        32        40        36        32        64        52        68        44        52 
dram[10]:        64        44        84        56        68        44        60        44        60        68        48        48        60        80        72        72 
dram[11]:        40        56        60        76        56        80        56        44        60        40        60        68        76        60        48        40 
maximum service time to same row:
dram[0]:     10551     10546     11373     11442     12069     11995     12610     12997     13052     13460     14256     14511     15173     15026     15648     15777 
dram[1]:     10612     10436     11461     11453     11985     12077     12598     12598     13676     13054     13654     14526     15149     15159     15762     15724 
dram[2]:     10414     10413     11456     11445     11991     12072     13300     12842     13451     13807     14545     14436     15143     15300     15722     15644 
dram[3]:     10633     10621     11448     11457     12076     11881     12691     13051     13630     13816     14499     14515     15062     15130     16069     15652 
dram[4]:     10548     10656     11465     11466     11979     12084     12707     12468     13675     13465     14504     14479     15115     15114     15461     15463 
dram[5]:     10425     10571     11275     11463     12004     11872     12693     12625     13616     13620     14532     14541     15154     15143     16159     15782 
dram[6]:     10629     10118     11440     11456     12064     12072     12844     13027     13481     13628     14772     13652     14861     15035     16178     15654 
dram[7]:     10570     10852     11380     11677     12237     11983     13054     12462     13663     13850     14526     14423     15150     14859     15754     15712 
dram[8]:     10427     10631     11452     11558     12063     12065     12710     12697     13849     13751     14525     14536     15038     14863     15641     15659 
dram[9]:     10419     10561     11456     11661     12088     11988     12691     12716     13058     13722     14536     14429     15025     15152     15716     15934 
dram[10]:     10631     10622     11368     11666     12077     12434     12463     12705     13860     13679     13654     14257     15140     15148     15730     15755 
dram[11]:     10846     10629     11449     11273     11876     12008     12996     13119     13471     13667     14502     14537     15030     15039     15784     15758 
average row accesses per activate:
dram[0]: 72.000000 92.000000 44.000000 66.000000 112.000000 120.000000 120.000000 88.000000 108.000000 84.000000 112.000000 88.000000 92.000000 124.000000 60.000000 84.000000 
dram[1]: 73.000000 78.000000 50.000000 76.000000 160.000000 116.000000 80.000000 100.000000 96.000000 116.000000 104.000000 88.000000 108.000000 124.000000 152.000000 108.000000 
dram[2]: 92.000000 62.000000 50.000000 54.000000 100.000000 136.000000 112.000000 132.000000 108.000000 72.000000 116.000000 104.000000 108.000000 48.000000 152.000000 116.000000 
dram[3]: 82.000000 58.000000 64.000000 68.000000 108.000000 96.000000 92.000000 136.000000 116.000000 144.000000 92.000000 144.000000 116.000000 108.000000 128.000000 140.000000 
dram[4]: 100.000000 98.000000 54.000000 76.000000 120.000000 116.000000 112.000000 92.000000 120.000000 132.000000 132.000000 152.000000 132.000000 144.000000 132.000000 104.000000 
dram[5]: 74.000000 46.000000 60.000000 64.000000 124.000000 104.000000 120.000000 132.000000 96.000000 100.000000 104.000000 88.000000 112.000000 148.000000 84.000000 124.000000 
dram[6]: 68.000000 60.000000 60.000000 66.000000 100.000000 124.000000 100.000000 128.000000 84.000000 92.000000 100.000000 104.000000 84.000000 108.000000 96.000000 124.000000 
dram[7]: 76.000000 82.000000 64.000000 44.000000 124.000000 100.000000 116.000000 124.000000 84.000000 92.000000 136.000000 96.000000 88.000000 120.000000 120.000000 140.000000 
dram[8]: 70.000000 96.000000 68.000000 52.000000 120.000000 124.000000 116.000000 148.000000 140.000000 120.000000 92.000000 76.000000 132.000000 120.000000 120.000000 100.000000 
dram[9]: 62.000000 72.000000 76.000000 60.000000 128.000000 124.000000 176.000000 84.000000 96.000000 72.000000 104.000000 124.000000 128.000000 116.000000 108.000000 84.000000 
dram[10]: 80.000000 78.000000 74.000000 68.000000 108.000000 80.000000 112.000000 96.000000 112.000000 120.000000 100.000000 104.000000 120.000000 128.000000 156.000000 140.000000 
dram[11]: 64.000000 62.000000 64.000000 60.000000 96.000000 128.000000 92.000000 92.000000 96.000000 108.000000 104.000000 100.000000 136.000000 104.000000 88.000000 96.000000 
average row locality = 22602/240 = 94.175003
number of total memory accesses made:
dram[0]:         0         0         0         0         0         0         0         0         0         0         0         0         0         0         0         0 
dram[1]:         0         0         0         0         0         0         0         0         0         0         0         0         0         0         0         0 
dram[2]:         0         0         0         0         0         0         0         0         0         0         0         0         0         0         0         0 
dram[3]:         0         0         0         0         0         0         0         0         0         0         0         0         0         0         0         0 
dram[4]:         0         0         0         0         0         0         0         0         0         0         0         0         0         0         0         0 
dram[5]:         0         0         0         0         0         0         0         0         0         0         0         0         0         0         0         0 
dram[6]:         0         0         0         0         0         0         0         0         0         0         0         0         0         0         0         0 
dram[7]:         0         0         0         0         0         0         0         0         0         0         0         0         0         0         0         0 
dram[8]:         0         0         0         0         0         0         0         0         0         0         0         0         0         0         0         0 
dram[9]:         0         0         0         0         0         0         0         0         0         0         0         0         0         0         0         0 
dram[10]:         0         0         0         0         0         0         0         0         0         0         0         0         0         0         0         0 
dram[11]:         0         0         0         0         0         0         0         0         0         0         0         0         0         0         0         0 
total accesses: 0
min_bank_accesses = 0!
min_chip_accesses = 0!
number of total read accesses:
dram[0]:       144       184        88       132       112       120       120        88       108        84       112        88        92       124        60        84 
dram[1]:       146       156       100       152       160       116        80       100        96       116       104        88       108       124       152       108 
dram[2]:       184       124       100       108       100       136       112       132       108        72       116       104       108        48       152       116 
dram[3]:       164       116       128       136       108        96        92       136       116       144        92       144       116       108       128       140 
dram[4]:       200       196       108       152       120       116       112        92       120       132       132       152       132       144       132       104 
dram[5]:       148        92       120       128       124       104       120       132        96       100       104        88       112       148        84       124 
dram[6]:       136       120       120       132       100       124       100       128        84        92       100       104        84       108        96       124 
dram[7]:       152       164       128        88       124       100       116       124        84        92       136        96        88       120       120       140 
dram[8]:       140       192       136       104       120       124       116       148       140       120        92        76       132       120       120       100 
dram[9]:       124       144       152       120       128       124       176        84        96        72       104       124       128       116       108        84 
dram[10]:       160       156       148       136       108        80       112        96       112       120       100       104       120       128       156       140 
dram[11]:       128       124       128       120        96       128        92        92        96       108       104       100       136       104        88        96 
total dram reads = 22602
bank skew: 200/48 = 4.17
chip skew: 2144/1740 = 1.23
number of total write accesses:
dram[0]:         0         0         0         0         0         0         0         0         0         0         0         0         0         0         0         0 
dram[1]:         0         0         0         0         0         0         0         0         0         0         0         0         0         0         0         0 
dram[2]:         0         0         0         0         0         0         0         0         0         0         0         0         0         0         0         0 
dram[3]:         0         0         0         0         0         0         0         0         0         0         0         0         0         0         0         0 
dram[4]:         0         0         0         0         0         0         0         0         0         0         0         0         0         0         0         0 
dram[5]:         0         0         0         0         0         0         0         0         0         0         0         0         0         0         0         0 
dram[6]:         0         0         0         0         0         0         0         0         0         0         0         0         0         0         0         0 
dram[7]:         0         0         0         0         0         0         0         0         0         0         0         0         0         0         0         0 
dram[8]:         0         0         0         0         0         0         0         0         0         0         0         0         0         0         0         0 
dram[9]:         0         0         0         0         0         0         0         0         0         0         0         0         0         0         0         0 
dram[10]:         0         0         0         0         0         0         0         0         0         0         0         0         0         0         0         0 
dram[11]:         0         0         0         0         0         0         0         0         0         0         0         0         0         0         0         0 
total dram writes = 0
min_bank_accesses = 0!
min_chip_accesses = 0!
average mf latency per bank:
dram[0]:        394       406       497       443       379       379       410       390       368       368       405       397       387       353       428       379
dram[1]:        381       393       429       425       354       405       372       424       368       345       393       371       361       341       378       393
dram[2]:        412       482       432       412       369       381       362       381       391       480       381       363       365       410       373       384
dram[3]:        414       414       448       446       362       400       376       373       391       398       372       367       372       355       364       376
dram[4]:        377       377       478       415       400       371       379       367       353       344       385       348       343       355       342       377
dram[5]:        497       531       399       444       387       401       388       373       436       381       375       363       352       355       343       349
dram[6]:        451       439       474       435       338       403       385       377       424       390       368       401       396       358       370       370
dram[7]:        399       400       412       460       393       427       381       393       379       383       363       364       361       352       334       339
dram[8]:        385       414       440       422       381       380       382       369       358       381       379       417       365       342       387       348
dram[9]:        400       429       416       432       430       353       375       391       419       474       354       368       349       382       344       354
dram[10]:        434       414       434       427       417       393       374       379       368       384       395       409       347       399       344       353
dram[11]:        392       391       480       459       376       393       432       412       408       371       340       437       397       351       350       387
maximum mf latency per bank:
dram[0]:        308       312       276       302       290       294       288       293       269       275       287       269       277       275       281       279
dram[1]:        296       301       296       272       306       300       287       295       274       274       275       294       285       287       287       290
dram[2]:        326       320       306       311       301       313       307       298       270       271       282       279       275       289       277       280
dram[3]:        301       316       297       315       286       296       284       281       292       286       274       277       276       275       286       281
dram[4]:        351       325       281       292       295       297       296       303       275       275       280       274       276       276       282       272
dram[5]:        329       298       309       300       303       306       294       291       287       295       271       275       279       282       284       286
dram[6]:        319       294       326       330       292       311       294       298       279       271       276       278       280       286       288       288
dram[7]:        314       325       306       299       289       299       283       309       278       280       274       279       279       275       291       284
dram[8]:        316       316       325       321       327       328       295       317       292       295       274       282       279       270       305       287
dram[9]:        300       299       306       308       306       302       299       306       275       275       273       275       270       276       276       273
dram[10]:        325       317       306       296       303       298       300       308       278       276       288       275       277       287       276       289
dram[11]:        309       296       281       302       302       300       293       297       274       272       276       275       272       278       281       271
Memory Partition 0: 
Cache L2_bank_000:
MSHR contents

Cache L2_bank_001:
MSHR contents

In Dram Latency Queue (total = 0): 
DRAM[0]: 16 bks, busW=4 BL=8 CL=16, tRRD=8 tCCD=2, tRCD=16 tRAS=37 tRP=16 tRC=52
n_cmd=33079 n_nop=31284 n_act=36 n_pre=20 n_ref_event=93953806101152 n_req=1740 n_rd=1740 n_rd_L2_A=0 n_write=0 n_wr_bk=0 bw_util=0.1052
n_activity=9179 dram_eff=0.3791
bk0: 144a 32708i bk1: 184a 32595i bk2: 88a 32835i bk3: 132a 32744i bk4: 112a 32753i bk5: 120a 32783i bk6: 120a 32789i bk7: 88a 32864i bk8: 108a 32846i bk9: 84a 32857i bk10: 112a 32798i bk11: 88a 32880i bk12: 92a 32864i bk13: 124a 32847i bk14: 60a 32933i bk15: 84a 32892i 

------------------------------------------------------------------------

Row_Buffer_Locality = 0.988506
Row_Buffer_Locality_read = 0.988506
Row_Buffer_Locality_write = -nan
Bank_Level_Parallism = 1.193761
Bank_Level_Parallism_Col = 0.668257
Bank_Level_Parallism_Ready = 1.055141
write_to_read_ratio_blp_rw_average = 0.000000
GrpLevelPara = 0.000000 

BW Util details:
bwutil = 0.105203 
total_CMD = 33079 
util_bw = 3480 
Wasted_Col = 1908 
Wasted_Row = 216 
Idle = 27475 

BW Util Bottlenecks: 
RCDc_limit = 492 
RCDWRc_limit = 0 
WTRc_limit = 0 
RTWc_limit = 0 
CCDLc_limit = 1484 
rwq = 0 
CCDLc_limit_alone = 1484 
WTRc_limit_alone = 0 
RTWc_limit_alone = 0 

Commands details: 
total_CMD = 33079 
n_nop = 31284 
Read = 1740 
Write = 0 
L2_Alloc = 0 
L2_WB = 0 
n_act = 36 
n_pre = 20 
n_ref = 93953806101152 
n_req = 1740 
total_req = 1740 

Dual Bus Interface Util: 
issued_total_row = 56 
issued_total_col = 1740 
Row_Bus_Util =  0.001693 
CoL_Bus_Util = 0.052601 
Either_Row_CoL_Bus_Util = 0.054264 
Issued_on_Two_Bus_Simul_Util = 0.000030 
issued_two_Eff = 0.000557 
queue_avg = 0.198464 


dram_util_bins: 0 0 0 0 0 0 0 0 0 0
dram_eff_bins: 0 0 0 0 0 0 0 0 0 0
mrqq: max=19 avg=0.198464
Memory Partition 1: 
Cache L2_bank_002:
MSHR contents

Cache L2_bank_003:
MSHR contents

In Dram Latency Queue (total = 0): 
DRAM[1]: 16 bks, busW=4 BL=8 CL=16, tRRD=8 tCCD=2, tRCD=16 tRAS=37 tRP=16 tRC=52
n_cmd=33079 n_nop=31118 n_act=36 n_pre=20 n_ref_event=0 n_req=1906 n_rd=1906 n_rd_L2_A=0 n_write=0 n_wr_bk=0 bw_util=0.1152
n_activity=9851 dram_eff=0.387
bk0: 146a 32715i bk1: 156a 32662i bk2: 100a 32816i bk3: 152a 32687i bk4: 160a 32684i bk5: 116a 32795i bk6: 80a 32866i bk7: 100a 32831i bk8: 96a 32873i bk9: 116a 32810i bk10: 104a 32839i bk11: 88a 32852i bk12: 108a 32832i bk13: 124a 32768i bk14: 152a 32729i bk15: 108a 32800i 

------------------------------------------------------------------------

Row_Buffer_Locality = 0.989507
Row_Buffer_Locality_read = 0.989507
Row_Buffer_Locality_write = -nan
Bank_Level_Parallism = 1.216867
Bank_Level_Parallism_Col = 1.000000
Bank_Level_Parallism_Ready = 1.081322
write_to_read_ratio_blp_rw_average = 0.000000
GrpLevelPara = 0.000000 

BW Util details:
bwutil = 0.115239 
total_CMD = 33079 
util_bw = 3812 
Wasted_Col = 2056 
Wasted_Row = 198 
Idle = 27013 

BW Util Bottlenecks: 
RCDc_limit = 457 
RCDWRc_limit = 0 
WTRc_limit = 0 
RTWc_limit = 0 
CCDLc_limit = 1685 
rwq = 0 
CCDLc_limit_alone = 1685 
WTRc_limit_alone = 0 
RTWc_limit_alone = 0 

Commands details: 
total_CMD = 33079 
n_nop = 31118 
Read = 1906 
Write = 0 
L2_Alloc = 0 
L2_WB = 0 
n_act = 36 
n_pre = 20 
n_ref = 0 
n_req = 1906 
total_req = 1906 

Dual Bus Interface Util: 
issued_total_row = 56 
issued_total_col = 1906 
Row_Bus_Util =  0.001693 
CoL_Bus_Util = 0.057620 
Either_Row_CoL_Bus_Util = 0.059282 
Issued_on_Two_Bus_Simul_Util = 0.000030 
issued_two_Eff = 0.000510 
queue_avg = 0.253000 


dram_util_bins: 0 0 0 0 0 0 0 0 0 0
dram_eff_bins: 0 0 0 0 0 0 0 0 0 0
mrqq: max=14 avg=0.253
Memory Partition 2: 
Cache L2_bank_004:
MSHR contents

Cache L2_bank_005:
MSHR contents

In Dram Latency Queue (total = 0): 
DRAM[2]: 16 bks, busW=4 BL=8 CL=16, tRRD=8 tCCD=2, tRCD=16 tRAS=37 tRP=16 tRC=52
n_cmd=33079 n_nop=31203 n_act=36 n_pre=20 n_ref_event=0 n_req=1820 n_rd=1820 n_rd_L2_A=0 n_write=0 n_wr_bk=0 bw_util=0.11
n_activity=9450 dram_eff=0.3852
bk0: 184a 32645i bk1: 124a 32757i bk2: 100a 32822i bk3: 108a 32748i bk4: 100a 32884i bk5: 136a 32709i bk6: 112a 32758i bk7: 132a 32740i bk8: 108a 32842i bk9: 72a 32883i bk10: 116a 32815i bk11: 104a 32868i bk12: 108a 32836i bk13: 48a 32953i bk14: 152a 32772i bk15: 116a 32829i 

------------------------------------------------------------------------

Row_Buffer_Locality = 0.989011
Row_Buffer_Locality_read = 0.989011
Row_Buffer_Locality_write = -nan
Bank_Level_Parallism = 1.203383
Bank_Level_Parallism_Col = 0.000000
Bank_Level_Parallism_Ready = 1.053238
write_to_read_ratio_blp_rw_average = 0.000000
GrpLevelPara = 0.000000 

BW Util details:
bwutil = 0.110040 
total_CMD = 33079 
util_bw = 3640 
Wasted_Col = 1908 
Wasted_Row = 224 
Idle = 27307 

BW Util Bottlenecks: 
RCDc_limit = 478 
RCDWRc_limit = 0 
WTRc_limit = 0 
RTWc_limit = 0 
CCDLc_limit = 1520 
rwq = 0 
CCDLc_limit_alone = 1520 
WTRc_limit_alone = 0 
RTWc_limit_alone = 0 

Commands details: 
total_CMD = 33079 
n_nop = 31203 
Read = 1820 
Write = 0 
L2_Alloc = 0 
L2_WB = 0 
n_act = 36 
n_pre = 20 
n_ref = 0 
n_req = 1820 
total_req = 1820 

Dual Bus Interface Util: 
issued_total_row = 56 
issued_total_col = 1820 
Row_Bus_Util =  0.001693 
CoL_Bus_Util = 0.055020 
Either_Row_CoL_Bus_Util = 0.056713 
Issued_on_Two_Bus_Simul_Util = 0.000000 
issued_two_Eff = 0.000000 
queue_avg = 0.242813 


dram_util_bins: 0 0 0 0 0 0 0 0 0 0
dram_eff_bins: 0 0 0 0 0 0 0 0 0 0
mrqq: max=19 avg=0.242813
Memory Partition 3: 
Cache L2_bank_006:
MSHR contents

Cache L2_bank_007:
MSHR contents

In Dram Latency Queue (total = 0): 
DRAM[3]: 16 bks, busW=4 BL=8 CL=16, tRRD=8 tCCD=2, tRCD=16 tRAS=37 tRP=16 tRC=52
n_cmd=33079 n_nop=31059 n_act=36 n_pre=20 n_ref_event=0 n_req=1964 n_rd=1964 n_rd_L2_A=0 n_write=0 n_wr_bk=0 bw_util=0.1187
n_activity=9548 dram_eff=0.4114
bk0: 164a 32669i bk1: 116a 32732i bk2: 128a 32762i bk3: 136a 32685i bk4: 108a 32826i bk5: 96a 32849i bk6: 92a 32857i bk7: 136a 32748i bk8: 116a 32770i bk9: 144a 32707i bk10: 92a 32879i bk11: 144a 32728i bk12: 116a 32816i bk13: 108a 32802i bk14: 128a 32803i bk15: 140a 32744i 

------------------------------------------------------------------------

Row_Buffer_Locality = 0.989817
Row_Buffer_Locality_read = 0.989817
Row_Buffer_Locality_write = -nan
Bank_Level_Parallism = 1.233653
Bank_Level_Parallism_Col = 1.000000
Bank_Level_Parallism_Ready = 1.083376
write_to_read_ratio_blp_rw_average = 0.000000
GrpLevelPara = 0.000000 

BW Util details:
bwutil = 0.118746 
total_CMD = 33079 
util_bw = 3928 
Wasted_Col = 2019 
Wasted_Row = 208 
Idle = 26924 

BW Util Bottlenecks: 
RCDc_limit = 462 
RCDWRc_limit = 0 
WTRc_limit = 0 
RTWc_limit = 0 
CCDLc_limit = 1612 
rwq = 0 
CCDLc_limit_alone = 1612 
WTRc_limit_alone = 0 
RTWc_limit_alone = 0 

Commands details: 
total_CMD = 33079 
n_nop = 31059 
Read = 1964 
Write = 0 
L2_Alloc = 0 
L2_WB = 0 
n_act = 36 
n_pre = 20 
n_ref = 0 
n_req = 1964 
total_req = 1964 

Dual Bus Interface Util: 
issued_total_row = 56 
issued_total_col = 1964 
Row_Bus_Util =  0.001693 
CoL_Bus_Util = 0.059373 
Either_Row_CoL_Bus_Util = 0.061066 
Issued_on_Two_Bus_Simul_Util = 0.000000 
issued_two_Eff = 0.000000 
queue_avg = 0.252698 


dram_util_bins: 0 0 0 0 0 0 0 0 0 0
dram_eff_bins: 0 0 0 0 0 0 0 0 0 0
mrqq: max=12 avg=0.252698
Memory Partition 4: 
Cache L2_bank_008:
MSHR contents

Cache L2_bank_009:
MSHR contents

In Dram Latency Queue (total = 0): 
DRAM[4]: 16 bks, busW=4 BL=8 CL=16, tRRD=8 tCCD=2, tRCD=16 tRAS=37 tRP=16 tRC=52
n_cmd=33079 n_nop=30879 n_act=36 n_pre=20 n_ref_event=0 n_req=2144 n_rd=2144 n_rd_L2_A=0 n_write=0 n_wr_bk=0 bw_util=0.1296
n_activity=10343 dram_eff=0.4146
bk0: 200a 32515i bk1: 196a 32557i bk2: 108a 32781i bk3: 152a 32700i bk4: 120a 32801i bk5: 116a 32786i bk6: 112a 32811i bk7: 92a 32855i bk8: 120a 32800i bk9: 132a 32797i bk10: 132a 32762i bk11: 152a 32739i bk12: 132a 32791i bk13: 144a 32732i bk14: 132a 32810i bk15: 104a 32790i 

------------------------------------------------------------------------

Row_Buffer_Locality = 0.990672
Row_Buffer_Locality_read = 0.990672
Row_Buffer_Locality_write = -nan
Bank_Level_Parallism = 1.269018
Bank_Level_Parallism_Col = 1.252025
Bank_Level_Parallism_Ready = 1.078322
write_to_read_ratio_blp_rw_average = 0.000000
GrpLevelPara = 1.248785 

BW Util details:
bwutil = 0.129629 
total_CMD = 33079 
util_bw = 4288 
Wasted_Col = 2000 
Wasted_Row = 194 
Idle = 26597 

BW Util Bottlenecks: 
RCDc_limit = 461 
RCDWRc_limit = 0 
WTRc_limit = 0 
RTWc_limit = 0 
CCDLc_limit = 1630 
rwq = 0 
CCDLc_limit_alone = 1630 
WTRc_limit_alone = 0 
RTWc_limit_alone = 0 

Commands details: 
total_CMD = 33079 
n_nop = 30879 
Read = 2144 
Write = 0 
L2_Alloc = 0 
L2_WB = 0 
n_act = 36 
n_pre = 20 
n_ref = 0 
n_req = 2144 
total_req = 2144 

Dual Bus Interface Util: 
issued_total_row = 56 
issued_total_col = 2144 
Row_Bus_Util =  0.001693 
CoL_Bus_Util = 0.064815 
Either_Row_CoL_Bus_Util = 0.066507 
Issued_on_Two_Bus_Simul_Util = 0.000000 
issued_two_Eff = 0.000000 
queue_avg = 0.338039 


dram_util_bins: 0 0 0 0 0 0 0 0 0 0
dram_eff_bins: 0 0 0 0 0 0 0 0 0 0
mrqq: max=38 avg=0.338039
Memory Partition 5: 
Cache L2_bank_010:
MSHR contents

Cache L2_bank_011:
MSHR contents

In Dram Latency Queue (total = 0): 
DRAM[5]: 16 bks, busW=4 BL=8 CL=16, tRRD=8 tCCD=2, tRCD=16 tRAS=37 tRP=16 tRC=52
n_cmd=33079 n_nop=31199 n_act=36 n_pre=20 n_ref_event=0 n_req=1824 n_rd=1824 n_rd_L2_A=0 n_write=0 n_wr_bk=0 bw_util=0.1103
n_activity=9594 dram_eff=0.3802
bk0: 148a 32739i bk1: 92a 32858i bk2: 120a 32834i bk3: 128a 32765i bk4: 124a 32790i bk5: 104a 32794i bk6: 120a 32757i bk7: 132a 32726i bk8: 96a 32853i bk9: 100a 32853i bk10: 104a 32851i bk11: 88a 32846i bk12: 112a 32857i bk13: 148a 32765i bk14: 84a 32880i bk15: 124a 32796i 

------------------------------------------------------------------------

Row_Buffer_Locality = 0.989035
Row_Buffer_Locality_read = 0.989035
Row_Buffer_Locality_write = -nan
Bank_Level_Parallism = 1.161038
Bank_Level_Parallism_Col = 1.146835
Bank_Level_Parallism_Ready = 1.041096
write_to_read_ratio_blp_rw_average = 0.000000
GrpLevelPara = 1.146835 

BW Util details:
bwutil = 0.110281 
total_CMD = 33079 
util_bw = 3648 
Wasted_Col = 2054 
Wasted_Row = 213 
Idle = 27164 

BW Util Bottlenecks: 
RCDc_limit = 476 
RCDWRc_limit = 0 
WTRc_limit = 0 
RTWc_limit = 0 
CCDLc_limit = 1659 
rwq = 0 
CCDLc_limit_alone = 1659 
WTRc_limit_alone = 0 
RTWc_limit_alone = 0 

Commands details: 
total_CMD = 33079 
n_nop = 31199 
Read = 1824 
Write = 0 
L2_Alloc = 0 
L2_WB = 0 
n_act = 36 
n_pre = 20 
n_ref = 0 
n_req = 1824 
total_req = 1824 

Dual Bus Interface Util: 
issued_total_row = 56 
issued_total_col = 1824 
Row_Bus_Util =  0.001693 
CoL_Bus_Util = 0.055141 
Either_Row_CoL_Bus_Util = 0.056834 
Issued_on_Two_Bus_Simul_Util = 0.000000 
issued_two_Eff = 0.000000 
queue_avg = 0.222679 


dram_util_bins: 0 0 0 0 0 0 0 0 0 0
dram_eff_bins: 0 0 0 0 0 0 0 0 0 0
mrqq: max=11 avg=0.222679
Memory Partition 6: 
Cache L2_bank_012:
MSHR contents

Cache L2_bank_013:
MSHR contents

In Dram Latency Queue (total = 0): 
DRAM[6]: 16 bks, busW=4 BL=8 CL=16, tRRD=8 tCCD=2, tRCD=16 tRAS=37 tRP=16 tRC=52
n_cmd=33079 n_nop=31271 n_act=36 n_pre=20 n_ref_event=0 n_req=1752 n_rd=1752 n_rd_L2_A=0 n_write=0 n_wr_bk=0 bw_util=0.1059
n_activity=9459 dram_eff=0.3704
bk0: 136a 32700i bk1: 120a 32812i bk2: 120a 32793i bk3: 132a 32758i bk4: 100a 32854i bk5: 124a 32727i bk6: 100a 32859i bk7: 128a 32744i bk8: 84a 32879i bk9: 92a 32902i bk10: 100a 32868i bk11: 104a 32850i bk12: 84a 32905i bk13: 108a 32851i bk14: 96a 32847i bk15: 124a 32817i 

------------------------------------------------------------------------

Row_Buffer_Locality = 0.988584
Row_Buffer_Locality_read = 0.988584
Row_Buffer_Locality_write = -nan
Bank_Level_Parallism = 1.165327
Bank_Level_Parallism_Col = 1.155235
Bank_Level_Parallism_Ready = 1.046750
write_to_read_ratio_blp_rw_average = 0.000000
GrpLevelPara = 1.155235 

BW Util details:
bwutil = 0.105928 
total_CMD = 33079 
util_bw = 3504 
Wasted_Col = 1918 
Wasted_Row = 229 
Idle = 27428 

BW Util Bottlenecks: 
RCDc_limit = 477 
RCDWRc_limit = 0 
WTRc_limit = 0 
RTWc_limit = 0 
CCDLc_limit = 1495 
rwq = 0 
CCDLc_limit_alone = 1495 
WTRc_limit_alone = 0 
RTWc_limit_alone = 0 

Commands details: 
total_CMD = 33079 
n_nop = 31271 
Read = 1752 
Write = 0 
L2_Alloc = 0 
L2_WB = 0 
n_act = 36 
n_pre = 20 
n_ref = 0 
n_req = 1752 
total_req = 1752 

Dual Bus Interface Util: 
issued_total_row = 56 
issued_total_col = 1752 
Row_Bus_Util =  0.001693 
CoL_Bus_Util = 0.052964 
Either_Row_CoL_Bus_Util = 0.054657 
Issued_on_Two_Bus_Simul_Util = 0.000000 
issued_two_Eff = 0.000000 
queue_avg = 0.150791 


dram_util_bins: 0 0 0 0 0 0 0 0 0 0
dram_eff_bins: 0 0 0 0 0 0 0 0 0 0
mrqq: max=9 avg=0.150791
Memory Partition 7: 
Cache L2_bank_014:
MSHR contents

Cache L2_bank_015:
MSHR contents

In Dram Latency Queue (total = 0): 
DRAM[7]: 16 bks, busW=4 BL=8 CL=16, tRRD=8 tCCD=2, tRCD=16 tRAS=37 tRP=16 tRC=52
n_cmd=33079 n_nop=31151 n_act=36 n_pre=20 n_ref_event=0 n_req=1872 n_rd=1872 n_rd_L2_A=0 n_write=0 n_wr_bk=0 bw_util=0.1132
n_activity=9774 dram_eff=0.3831
bk0: 152a 32702i bk1: 164a 32679i bk2: 128a 32769i bk3: 88a 32875i bk4: 124a 32817i bk5: 100a 32859i bk6: 116a 32827i bk7: 124a 32790i bk8: 84a 32866i bk9: 92a 32860i bk10: 136a 32756i bk11: 96a 32852i bk12: 88a 32873i bk13: 120a 32820i bk14: 120a 32803i bk15: 140a 32752i 

------------------------------------------------------------------------

Row_Buffer_Locality = 0.989316
Row_Buffer_Locality_read = 0.989316
Row_Buffer_Locality_write = -nan
Bank_Level_Parallism = 1.164502
Bank_Level_Parallism_Col = 1.150158
Bank_Level_Parallism_Ready = 1.033102
write_to_read_ratio_blp_rw_average = 0.000000
GrpLevelPara = 1.148777 

BW Util details:
bwutil = 0.113184 
total_CMD = 33079 
util_bw = 3744 
Wasted_Col = 2050 
Wasted_Row = 213 
Idle = 27072 

BW Util Bottlenecks: 
RCDc_limit = 451 
RCDWRc_limit = 0 
WTRc_limit = 0 
RTWc_limit = 0 
CCDLc_limit = 1692 
rwq = 0 
CCDLc_limit_alone = 1692 
WTRc_limit_alone = 0 
RTWc_limit_alone = 0 

Commands details: 
total_CMD = 33079 
n_nop = 31151 
Read = 1872 
Write = 0 
L2_Alloc = 0 
L2_WB = 0 
n_act = 36 
n_pre = 20 
n_ref = 0 
n_req = 1872 
total_req = 1872 

Dual Bus Interface Util: 
issued_total_row = 56 
issued_total_col = 1872 
Row_Bus_Util =  0.001693 
CoL_Bus_Util = 0.056592 
Either_Row_CoL_Bus_Util = 0.058285 
Issued_on_Two_Bus_Simul_Util = 0.000000 
issued_two_Eff = 0.000000 
queue_avg = 0.168234 


dram_util_bins: 0 0 0 0 0 0 0 0 0 0
dram_eff_bins: 0 0 0 0 0 0 0 0 0 0
mrqq: max=9 avg=0.168234
Memory Partition 8: 
Cache L2_bank_016:
MSHR contents

Cache L2_bank_017:
MSHR contents

In Dram Latency Queue (total = 0): 
DRAM[8]: 16 bks, busW=4 BL=8 CL=16, tRRD=8 tCCD=2, tRCD=16 tRAS=37 tRP=16 tRC=52
n_cmd=33079 n_nop=31043 n_act=36 n_pre=20 n_ref_event=0 n_req=1980 n_rd=1980 n_rd_L2_A=0 n_write=0 n_wr_bk=0 bw_util=0.1197
n_activity=9657 dram_eff=0.4101
bk0: 140a 32727i bk1: 192a 32580i bk2: 136a 32712i bk3: 104a 32850i bk4: 120a 32782i bk5: 124a 32698i bk6: 116a 32750i bk7: 148a 32621i bk8: 140a 32702i bk9: 120a 32790i bk10: 92a 32857i bk11: 76a 32895i bk12: 132a 32804i bk13: 120a 32793i bk14: 120a 32805i bk15: 100a 32845i 

------------------------------------------------------------------------

Row_Buffer_Locality = 0.989899
Row_Buffer_Locality_read = 0.989899
Row_Buffer_Locality_write = -nan
Bank_Level_Parallism = 1.266063
Bank_Level_Parallism_Col = 1.252693
Bank_Level_Parallism_Ready = 1.075719
write_to_read_ratio_blp_rw_average = 0.000000
GrpLevelPara = 1.252126 

BW Util details:
bwutil = 0.119713 
total_CMD = 33079 
util_bw = 3960 
Wasted_Col = 1957 
Wasted_Row = 205 
Idle = 26957 

BW Util Bottlenecks: 
RCDc_limit = 449 
RCDWRc_limit = 0 
WTRc_limit = 0 
RTWc_limit = 0 
CCDLc_limit = 1579 
rwq = 0 
CCDLc_limit_alone = 1579 
WTRc_limit_alone = 0 
RTWc_limit_alone = 0 

Commands details: 
total_CMD = 33079 
n_nop = 31043 
Read = 1980 
Write = 0 
L2_Alloc = 0 
L2_WB = 0 
n_act = 36 
n_pre = 20 
n_ref = 0 
n_req = 1980 
total_req = 1980 

Dual Bus Interface Util: 
issued_total_row = 56 
issued_total_col = 1980 
Row_Bus_Util =  0.001693 
CoL_Bus_Util = 0.059857 
Either_Row_CoL_Bus_Util = 0.061550 
Issued_on_Two_Bus_Simul_Util = 0.000000 
issued_two_Eff = 0.000000 
queue_avg = 0.330935 


dram_util_bins: 0 0 0 0 0 0 0 0 0 0
dram_eff_bins: 0 0 0 0 0 0 0 0 0 0
mrqq: max=14 avg=0.330935
Memory Partition 9: 
Cache L2_bank_018:
MSHR contents

Cache L2_bank_019:
MSHR contents

In Dram Latency Queue (total = 0): 
DRAM[9]: 16 bks, busW=4 BL=8 CL=16, tRRD=8 tCCD=2, tRCD=16 tRAS=37 tRP=16 tRC=52
n_cmd=33079 n_nop=31140 n_act=36 n_pre=20 n_ref_event=0 n_req=1884 n_rd=1884 n_rd_L2_A=0 n_write=0 n_wr_bk=0 bw_util=0.1139
n_activity=9938 dram_eff=0.3792
bk0: 124a 32752i bk1: 144a 32758i bk2: 152a 32723i bk3: 120a 32758i bk4: 128a 32788i bk5: 124a 32778i bk6: 176a 32672i bk7: 84a 32872i bk8: 96a 32846i bk9: 72a 32920i bk10: 104a 32820i bk11: 124a 32831i bk12: 128a 32807i bk13: 116a 32821i bk14: 108a 32864i bk15: 84a 32895i 

------------------------------------------------------------------------

Row_Buffer_Locality = 0.989384
Row_Buffer_Locality_read = 0.989384
Row_Buffer_Locality_write = -nan
Bank_Level_Parallism = 1.177634
Bank_Level_Parallism_Col = 1.166267
Bank_Level_Parallism_Ready = 1.038727
write_to_read_ratio_blp_rw_average = 0.000000
GrpLevelPara = 1.165466 

BW Util details:
bwutil = 0.113909 
total_CMD = 33079 
util_bw = 3768 
Wasted_Col = 1960 
Wasted_Row = 222 
Idle = 27129 

BW Util Bottlenecks: 
RCDc_limit = 469 
RCDWRc_limit = 0 
WTRc_limit = 0 
RTWc_limit = 0 
CCDLc_limit = 1570 
rwq = 0 
CCDLc_limit_alone = 1570 
WTRc_limit_alone = 0 
RTWc_limit_alone = 0 

Commands details: 
total_CMD = 33079 
n_nop = 31140 
Read = 1884 
Write = 0 
L2_Alloc = 0 
L2_WB = 0 
n_act = 36 
n_pre = 20 
n_ref = 0 
n_req = 1884 
total_req = 1884 

Dual Bus Interface Util: 
issued_total_row = 56 
issued_total_col = 1884 
Row_Bus_Util =  0.001693 
CoL_Bus_Util = 0.056955 
Either_Row_CoL_Bus_Util = 0.058617 
Issued_on_Two_Bus_Simul_Util = 0.000030 
issued_two_Eff = 0.000516 
queue_avg = 0.135312 


dram_util_bins: 0 0 0 0 0 0 0 0 0 0
dram_eff_bins: 0 0 0 0 0 0 0 0 0 0
mrqq: max=7 avg=0.135312
Memory Partition 10: 
Cache L2_bank_020:
MSHR contents

Cache L2_bank_021:
MSHR contents

In Dram Latency Queue (total = 0): 
DRAM[10]: 16 bks, busW=4 BL=8 CL=16, tRRD=8 tCCD=2, tRCD=16 tRAS=37 tRP=16 tRC=52
n_cmd=33079 n_nop=31048 n_act=36 n_pre=20 n_ref_event=0 n_req=1976 n_rd=1976 n_rd_L2_A=0 n_write=0 n_wr_bk=0 bw_util=0.1195
n_activity=9649 dram_eff=0.4096
bk0: 160a 32669i bk1: 156a 32682i bk2: 148a 32739i bk3: 136a 32735i bk4: 108a 32805i bk5: 80a 32850i bk6: 112a 32796i bk7: 96a 32848i bk8: 112a 32860i bk9: 120a 32809i bk10: 100a 32866i bk11: 104a 32830i bk12: 120a 32816i bk13: 128a 32764i bk14: 156a 32700i bk15: 140a 32762i 

------------------------------------------------------------------------

Row_Buffer_Locality = 0.989879
Row_Buffer_Locality_read = 0.989879
Row_Buffer_Locality_write = -nan
Bank_Level_Parallism = 1.244540
Bank_Level_Parallism_Col = 1.228505
Bank_Level_Parallism_Ready = 1.068285
write_to_read_ratio_blp_rw_average = 0.000000
GrpLevelPara = 1.224605 

BW Util details:
bwutil = 0.119472 
total_CMD = 33079 
util_bw = 3952 
Wasted_Col = 1886 
Wasted_Row = 199 
Idle = 27042 

BW Util Bottlenecks: 
RCDc_limit = 444 
RCDWRc_limit = 0 
WTRc_limit = 0 
RTWc_limit = 0 
CCDLc_limit = 1505 
rwq = 0 
CCDLc_limit_alone = 1505 
WTRc_limit_alone = 0 
RTWc_limit_alone = 0 

Commands details: 
total_CMD = 33079 
n_nop = 31048 
Read = 1976 
Write = 0 
L2_Alloc = 0 
L2_WB = 0 
n_act = 36 
n_pre = 20 
n_ref = 0 
n_req = 1976 
total_req = 1976 

Dual Bus Interface Util: 
issued_total_row = 56 
issued_total_col = 1976 
Row_Bus_Util =  0.001693 
CoL_Bus_Util = 0.059736 
Either_Row_CoL_Bus_Util = 0.061398 
Issued_on_Two_Bus_Simul_Util = 0.000030 
issued_two_Eff = 0.000492 
queue_avg = 0.235467 


dram_util_bins: 0 0 0 0 0 0 0 0 0 0
dram_eff_bins: 0 0 0 0 0 0 0 0 0 0
mrqq: max=19 avg=0.235467
Memory Partition 11: 
Cache L2_bank_022:
MSHR contents

Cache L2_bank_023:
MSHR contents

In Dram Latency Queue (total = 0): 
DRAM[11]: 16 bks, busW=4 BL=8 CL=16, tRRD=8 tCCD=2, tRCD=16 tRAS=37 tRP=16 tRC=52
n_cmd=33079 n_nop=31283 n_act=36 n_pre=20 n_ref_event=0 n_req=1740 n_rd=1740 n_rd_L2_A=0 n_write=0 n_wr_bk=0 bw_util=0.1052
n_activity=9572 dram_eff=0.3636
bk0: 128a 32786i bk1: 124a 32753i bk2: 128a 32774i bk3: 120a 32788i bk4: 96a 32823i bk5: 128a 32786i bk6: 92a 32877i bk7: 92a 32839i bk8: 96a 32878i bk9: 108a 32834i bk10: 104a 32853i bk11: 100a 32862i bk12: 136a 32802i bk13: 104a 32864i bk14: 88a 32877i bk15: 96a 32862i 

------------------------------------------------------------------------

Row_Buffer_Locality = 0.988506
Row_Buffer_Locality_read = 0.988506
[...]
queue_avg = 0.237387 


dram_util_bins: 0 0 0 0 0 0 0 0 0 0
dram_eff_bins: 0 0 0 0 0 0 0 0 0 0
mrqq: max=17 avg=0.237387
Memory Partition 6: 
Cache L2_bank_012:
MSHR contents

Cache L2_bank_013:
MSHR contents

In Dram Latency Queue (total = 0): 
DRAM[6]: 16 bks, busW=4 BL=8 CL=16, tRRD=8 tCCD=2, tRCD=16 tRAS=37 tRP=16 tRC=52
n_cmd=163084 n_nop=154179 n_act=172 n_pre=156 n_ref_event=0 n_req=8577 n_rd=8577 n_rd_L2_A=0 n_write=0 n_wr_bk=0 bw_util=0.1052
n_activity=46128 dram_eff=0.3719
bk0: 578a 161579i bk1: 507a 161769i bk2: 535a 161667i bk3: 525a 161643i bk4: 608a 161616i bk5: 576a 161522i bk6: 540a 161760i bk7: 492a 161779i bk8: 508a 161815i bk9: 608a 161542i bk10: 456a 162012i bk11: 484a 161803i bk12: 576a 161676i bk13: 492a 161913i bk14: 528a 161831i bk15: 564a 161743i 

------------------------------------------------------------------------

Row_Buffer_Locality = 0.981812
Row_Buffer_Locality_read = 0.981812
Row_Buffer_Locality_write = -nan
Bank_Level_Parallism = 1.192140
Bank_Level_Parallism_Col = 1.167187
Bank_Level_Parallism_Ready = 1.042880
write_to_read_ratio_blp_rw_average = 0.000000
GrpLevelPara = 1.166588 

BW Util details:
bwutil = 0.105185 
total_CMD = 163084 
util_bw = 17154 
Wasted_Col = 9540 
Wasted_Row = 1604 
Idle = 134786 

BW Util Bottlenecks: 
RCDc_limit = 2182 
RCDWRc_limit = 0 
WTRc_limit = 0 
RTWc_limit = 0 
CCDLc_limit = 7769 
rwq = 0 
CCDLc_limit_alone = 7769 
WTRc_limit_alone = 0 
RTWc_limit_alone = 0 

Commands details: 
total_CMD = 163084 
n_nop = 154179 
Read = 8577 
Write = 0 
L2_Alloc = 0 
L2_WB = 0 
n_act = 172 
n_pre = 156 
n_ref = 0 
n_req = 8577 
total_req = 8577 

Dual Bus Interface Util: 
issued_total_row = 328 
issued_total_col = 8577 
Row_Bus_Util =  0.002011 
CoL_Bus_Util = 0.052593 
Either_Row_CoL_Bus_Util = 0.054604 
Issued_on_Two_Bus_Simul_Util = 0.000000 
issued_two_Eff = 0.000000 
queue_avg = 0.213215 


dram_util_bins: 0 0 0 0 0 0 0 0 0 0
dram_eff_bins: 0 0 0 0 0 0 0 0 0 0
mrqq: max=22 avg=0.213215
Memory Partition 7: 
Cache L2_bank_014:
MSHR contents

Cache L2_bank_015:
MSHR contents

In Dram Latency Queue (total = 0): 
DRAM[7]: 16 bks, busW=4 BL=8 CL=16, tRRD=8 tCCD=2, tRCD=16 tRAS=37 tRP=16 tRC=52
n_cmd=163084 n_nop=153312 n_act=171 n_pre=155 n_ref_event=0 n_req=9448 n_rd=9448 n_rd_L2_A=0 n_write=0 n_wr_bk=0 bw_util=0.1159
n_activity=48004 dram_eff=0.3936
bk0: 656a 161461i bk1: 585a 161447i bk2: 580a 161701i bk3: 547a 161705i bk4: 604a 161710i bk5: 588a 161641i bk6: 580a 161678i bk7: 576a 161618i bk8: 516a 161707i bk9: 580a 161536i bk10: 596a 161699i bk11: 592a 161618i bk12: 552a 161688i bk13: 664a 161383i bk14: 688a 161344i bk15: 544a 161612i 

------------------------------------------------------------------------

Row_Buffer_Locality = 0.983594
Row_Buffer_Locality_read = 0.983594
Row_Buffer_Locality_write = -nan
Bank_Level_Parallism = 1.240111
Bank_Level_Parallism_Col = 1.208480
Bank_Level_Parallism_Ready = 1.059465
write_to_read_ratio_blp_rw_average = 0.000000
GrpLevelPara = 1.205805 

BW Util details:
bwutil = 0.115867 
total_CMD = 163084 
util_bw = 18896 
Wasted_Col = 9589 
Wasted_Row = 1357 
Idle = 133242 

BW Util Bottlenecks: 
RCDc_limit = 2009 
RCDWRc_limit = 0 
WTRc_limit = 0 
RTWc_limit = 0 
CCDLc_limit = 8085 
rwq = 0 
CCDLc_limit_alone = 8085 
WTRc_limit_alone = 0 
RTWc_limit_alone = 0 

Commands details: 
total_CMD = 163084 
n_nop = 153312 
Read = 9448 
Write = 0 
L2_Alloc = 0 
L2_WB = 0 
n_act = 171 
n_pre = 155 
n_ref = 0 
n_req = 9448 
total_req = 9448 

Dual Bus Interface Util: 
issued_total_row = 326 
issued_total_col = 9448 
Row_Bus_Util =  0.001999 
CoL_Bus_Util = 0.057933 
Either_Row_CoL_Bus_Util = 0.059920 
Issued_on_Two_Bus_Simul_Util = 0.000012 
issued_two_Eff = 0.000205 
queue_avg = 0.251386 


dram_util_bins: 0 0 0 0 0 0 0 0 0 0
dram_eff_bins: 0 0 0 0 0 0 0 0 0 0
mrqq: max=17 avg=0.251386
Memory Partition 8: 
Cache L2_bank_016:
MSHR contents

Cache L2_bank_017:
MSHR contents

In Dram Latency Queue (total = 0): 
DRAM[8]: 16 bks, busW=4 BL=8 CL=16, tRRD=8 tCCD=2, tRCD=16 tRAS=37 tRP=16 tRC=52
n_cmd=163084 n_nop=153412 n_act=173 n_pre=157 n_ref_event=0 n_req=9342 n_rd=9342 n_rd_L2_A=0 n_write=0 n_wr_bk=0 bw_util=0.1146
n_activity=48199 dram_eff=0.3876
bk0: 578a 161566i bk1: 653a 161353i bk2: 629a 161424i bk3: 570a 161721i bk4: 632a 161461i bk5: 524a 161610i bk6: 568a 161655i bk7: 628a 161410i bk8: 588a 161599i bk9: 564a 161581i bk10: 580a 161684i bk11: 484a 161860i bk12: 560a 161687i bk13: 560a 161683i bk14: 676a 161518i bk15: 548a 161765i 

------------------------------------------------------------------------

Row_Buffer_Locality = 0.983194
Row_Buffer_Locality_read = 0.983194
Row_Buffer_Locality_write = -nan
Bank_Level_Parallism = 1.213998
Bank_Level_Parallism_Col = 1.192864
Bank_Level_Parallism_Ready = 1.061297
write_to_read_ratio_blp_rw_average = 0.000000
GrpLevelPara = 1.190804 

BW Util details:
bwutil = 0.114567 
total_CMD = 163084 
util_bw = 18684 
Wasted_Col = 9962 
Wasted_Row = 1629 
Idle = 132809 

BW Util Bottlenecks: 
RCDc_limit = 2252 
RCDWRc_limit = 0 
WTRc_limit = 0 
RTWc_limit = 0 
CCDLc_limit = 8058 
rwq = 0 
CCDLc_limit_alone = 8058 
WTRc_limit_alone = 0 
RTWc_limit_alone = 0 

Commands details: 
total_CMD = 163084 
n_nop = 153412 
Read = 9342 
Write = 0 
L2_Alloc = 0 
L2_WB = 0 
n_act = 173 
n_pre = 157 
n_ref = 0 
n_req = 9342 
total_req = 9342 

Dual Bus Interface Util: 
issued_total_row = 330 
issued_total_col = 9342 
Row_Bus_Util =  0.002023 
CoL_Bus_Util = 0.057283 
Either_Row_CoL_Bus_Util = 0.059307 
Issued_on_Two_Bus_Simul_Util = 0.000000 
issued_two_Eff = 0.000000 
queue_avg = 0.240312 


dram_util_bins: 0 0 0 0 0 0 0 0 0 0
dram_eff_bins: 0 0 0 0 0 0 0 0 0 0
mrqq: max=14 avg=0.240312
Memory Partition 9: 
Cache L2_bank_018:
MSHR contents

Cache L2_bank_019:
MSHR contents

In Dram Latency Queue (total = 0): 
DRAM[9]: 16 bks, busW=4 BL=8 CL=16, tRRD=8 tCCD=2, tRCD=16 tRAS=37 tRP=16 tRC=52
n_cmd=163084 n_nop=153593 n_act=170 n_pre=154 n_ref_event=0 n_req=9169 n_rd=9169 n_rd_L2_A=0 n_write=0 n_wr_bk=0 bw_util=0.1124
n_activity=47509 dram_eff=0.386
bk0: 538a 161638i bk1: 599a 161597i bk2: 563a 161704i bk3: 613a 161493i bk4: 632a 161518i bk5: 600a 161501i bk6: 604a 161623i bk7: 556a 161633i bk8: 520a 161806i bk9: 504a 161847i bk10: 556a 161722i bk11: 548a 161692i bk12: 652a 161611i bk13: 600a 161612i bk14: 580a 161760i bk15: 504a 161815i 

------------------------------------------------------------------------

Row_Buffer_Locality = 0.983204
Row_Buffer_Locality_read = 0.983204
Row_Buffer_Locality_write = -nan
Bank_Level_Parallism = 1.208001
Bank_Level_Parallism_Col = 1.183599
Bank_Level_Parallism_Ready = 1.050692
write_to_read_ratio_blp_rw_average = 0.000000
GrpLevelPara = 1.181926 

BW Util details:
bwutil = 0.112445 
total_CMD = 163084 
util_bw = 18338 
Wasted_Col = 9600 
Wasted_Row = 1535 
Idle = 133611 

BW Util Bottlenecks: 
RCDc_limit = 2064 
RCDWRc_limit = 0 
WTRc_limit = 0 
RTWc_limit = 0 
CCDLc_limit = 7969 
rwq = 0 
CCDLc_limit_alone = 7969 
WTRc_limit_alone = 0 
RTWc_limit_alone = 0 

Commands details: 
total_CMD = 163084 
n_nop = 153593 
Read = 9169 
Write = 0 
L2_Alloc = 0 
L2_WB = 0 
n_act = 170 
n_pre = 154 
n_ref = 0 
n_req = 9169 
total_req = 9169 

Dual Bus Interface Util: 
issued_total_row = 324 
issued_total_col = 9169 
Row_Bus_Util =  0.001987 
CoL_Bus_Util = 0.056223 
Either_Row_CoL_Bus_Util = 0.058197 
Issued_on_Two_Bus_Simul_Util = 0.000012 
issued_two_Eff = 0.000211 
queue_avg = 0.236841 


dram_util_bins: 0 0 0 0 0 0 0 0 0 0
dram_eff_bins: 0 0 0 0 0 0 0 0 0 0
mrqq: max=26 avg=0.236841
Memory Partition 10: 
Cache L2_bank_020:
MSHR contents

Cache L2_bank_021:
MSHR contents

In Dram Latency Queue (total = 0): 
DRAM[10]: 16 bks, busW=4 BL=8 CL=16, tRRD=8 tCCD=2, tRCD=16 tRAS=37 tRP=16 tRC=52
n_cmd=163084 n_nop=153395 n_act=176 n_pre=160 n_ref_event=0 n_req=9352 n_rd=9351 n_rd_L2_A=0 n_write=0 n_wr_bk=4 bw_util=0.1147
n_activity=47989 dram_eff=0.3899
bk0: 547a 161683i bk1: 635a 161416i bk2: 562a 161709i bk3: 615a 161385i bk4: 612a 161542i bk5: 536a 161658i bk6: 572a 161674i bk7: 588a 161641i bk8: 580a 161745i bk9: 560a 161661i bk10: 596a 161591i bk11: 572a 161646i bk12: 624a 161473i bk13: 604a 161537i bk14: 576a 161650i bk15: 572a 161660i 

------------------------------------------------------------------------

Row_Buffer_Locality = 0.982891
Row_Buffer_Locality_read = 0.982996
Row_Buffer_Locality_write = 0.000000
Bank_Level_Parallism = 1.227200
Bank_Level_Parallism_Col = 1.194635
Bank_Level_Parallism_Ready = 1.052772
write_to_read_ratio_blp_rw_average = 0.001056
GrpLevelPara = 1.193559 

BW Util details:
bwutil = 0.114726 
total_CMD = 163084 
util_bw = 18710 
Wasted_Col = 9834 
Wasted_Row = 1419 
Idle = 133121 

BW Util Bottlenecks: 
RCDc_limit = 2171 
RCDWRc_limit = 6 
WTRc_limit = 11 
RTWc_limit = 12 
CCDLc_limit = 8087 
rwq = 0 
CCDLc_limit_alone = 8087 
WTRc_limit_alone = 11 
RTWc_limit_alone = 12 

Commands details: 
total_CMD = 163084 
n_nop = 153395 
Read = 9351 
Write = 0 
L2_Alloc = 0 
L2_WB = 4 
n_act = 176 
n_pre = 160 
n_ref = 0 
n_req = 9352 
total_req = 9355 

Dual Bus Interface Util: 
issued_total_row = 336 
issued_total_col = 9355 
Row_Bus_Util =  0.002060 
CoL_Bus_Util = 0.057363 
Either_Row_CoL_Bus_Util = 0.059411 
Issued_on_Two_Bus_Simul_Util = 0.000012 
issued_two_Eff = 0.000206 
queue_avg = 0.262460 


dram_util_bins: 0 0 0 0 0 0 0 0 0 0
dram_eff_bins: 0 0 0 0 0 0 0 0 0 0
mrqq: max=19 avg=0.26246
Memory Partition 11: 
Cache L2_bank_022:
MSHR contents

Cache L2_bank_023:
MSHR contents

In Dram Latency Queue (total = 0): 
DRAM[11]: 16 bks, busW=4 BL=8 CL=16, tRRD=8 tCCD=2, tRCD=16 tRAS=37 tRP=16 tRC=52
n_cmd=163084 n_nop=154099 n_act=176 n_pre=160 n_ref_event=0 n_req=8641 n_rd=8638 n_rd_L2_A=0 n_write=0 n_wr_bk=12 bw_util=0.1061
n_activity=46732 dram_eff=0.3702
bk0: 546a 161712i bk1: 618a 161533i bk2: 610a 161430i bk3: 622a 161325i bk4: 556a 161619i bk5: 602a 161608i bk6: 556a 161728i bk7: 492a 161800i bk8: 464a 161981i bk9: 520a 161812i bk10: 460a 161912i bk11: 516a 161835i bk12: 520a 161794i bk13: 560a 161689i bk14: 452a 161990i bk15: 544a 161803i 

------------------------------------------------------------------------

Row_Buffer_Locality = 0.981484
Row_Buffer_Locality_read = 0.981825
Row_Buffer_Locality_write = 0.000000
Bank_Level_Parallism = 1.196186
Bank_Level_Parallism_Col = 1.166241
Bank_Level_Parallism_Ready = 1.038684
write_to_read_ratio_blp_rw_average = 0.006485
GrpLevelPara = 1.165473 

BW Util details:
bwutil = 0.106080 
total_CMD = 163084 
util_bw = 17300 
Wasted_Col = 9548 
Wasted_Row = 1558 
Idle = 134678 

BW Util Bottlenecks: 
RCDc_limit = 2167 
RCDWRc_limit = 21 
WTRc_limit = 14 
RTWc_limit = 88 
CCDLc_limit = 7703 
rwq = 0 
CCDLc_limit_alone = 7697 
WTRc_limit_alone = 14 
RTWc_limit_alone = 82 

Commands details: 
total_CMD = 163084 
n_nop = 154099 
Read = 8638 
Write = 0 
L2_Alloc = 0 
L2_WB = 12 
n_act = 176 
n_pre = 160 
n_ref = 0 
n_req = 8641 
total_req = 8650 

Dual Bus Interface Util: 
issued_total_row = 336 
issued_total_col = 8650 
Row_Bus_Util =  0.002060 
CoL_Bus_Util = 0.053040 
Either_Row_CoL_Bus_Util = 0.055094 
Issued_on_Two_Bus_Simul_Util = 0.000006 
issued_two_Eff = 0.000111 
queue_avg = 0.202497 


dram_util_bins: 0 0 0 0 0 0 0 0 0 0
dram_eff_bins: 0 0 0 0 0 0 0 0 0 0
mrqq: max=21 avg=0.202497

========= L2 cache stats =========
L2_cache_bank[0]: Access = 7512, Miss = 4380, Miss_rate = 0.583, Pending_hits = 1500, Reservation_fails = 0
L2_cache_bank[1]: Access = 7541, Miss = 4242, Miss_rate = 0.563, Pending_hits = 1407, Reservation_fails = 0
L2_cache_bank[2]: Access = 7781, Miss = 4750, Miss_rate = 0.610, Pending_hits = 1550, Reservation_fails = 0
L2_cache_bank[3]: Access = 7361, Miss = 4386, Miss_rate = 0.596, Pending_hits = 1449, Reservation_fails = 0
L2_cache_bank[4]: Access = 7699, Miss = 4166, Miss_rate = 0.541, Pending_hits = 1386, Reservation_fails = 0
L2_cache_bank[5]: Access = 7775, Miss = 4588, Miss_rate = 0.590, Pending_hits = 1549, Reservation_fails = 0
L2_cache_bank[6]: Access = 7615, Miss = 4610, Miss_rate = 0.605, Pending_hits = 1487, Reservation_fails = 0
L2_cache_bank[7]: Access = 7910, Miss = 4586, Miss_rate = 0.580, Pending_hits = 1559, Reservation_fails = 0
L2_cache_bank[8]: Access = 8250, Miss = 5052, Miss_rate = 0.612, Pending_hits = 1669, Reservation_fails = 0
L2_cache_bank[9]: Access = 7800, Miss = 4626, Miss_rate = 0.593, Pending_hits = 1550, Reservation_fails = 0
L2_cache_bank[10]: Access = 7747, Miss = 4460, Miss_rate = 0.576, Pending_hits = 1531, Reservation_fails = 0
L2_cache_bank[11]: Access = 7850, Miss = 4814, Miss_rate = 0.613, Pending_hits = 1585, Reservation_fails = 0
L2_cache_bank[12]: Access = 7384, Miss = 4224, Miss_rate = 0.572, Pending_hits = 1385, Reservation_fails = 0
L2_cache_bank[13]: Access = 7564, Miss = 4490, Miss_rate = 0.594, Pending_hits = 1432, Reservation_fails = 0
L2_cache_bank[14]: Access = 7440, Miss = 4016, Miss_rate = 0.540, Pending_hits = 1379, Reservation_fails = 0
L2_cache_bank[15]: Access = 8260, Miss = 5532, Miss_rate = 0.670, Pending_hits = 1856, Reservation_fails = 0
L2_cache_bank[16]: Access = 7616, Miss = 4606, Miss_rate = 0.605, Pending_hits = 1458, Reservation_fails = 0
L2_cache_bank[17]: Access = 7939, Miss = 4866, Miss_rate = 0.613, Pending_hits = 1648, Reservation_fails = 0
L2_cache_bank[18]: Access = 7509, Miss = 4270, Miss_rate = 0.569, Pending_hits = 1428, Reservation_fails = 0
L2_cache_bank[19]: Access = 8338, Miss = 5040, Miss_rate = 0.604, Pending_hits = 1706, Reservation_fails = 0
L2_cache_bank[20]: Access = 7846, Miss = 4342, Miss_rate = 0.553, Pending_hits = 1456, Reservation_fails = 0
L2_cache_bank[21]: Access = 8106, Miss = 5144, Miss_rate = 0.635, Pending_hits = 1736, Reservation_fails = 0
L2_cache_bank[22]: Access = 7688, Miss = 4496, Miss_rate = 0.585, Pending_hits = 1512, Reservation_fails = 0
L2_cache_bank[23]: Access = 7574, Miss = 4298, Miss_rate = 0.567, Pending_hits = 1470, Reservation_fails = 0
L2_total_cache_accesses = 186105
L2_total_cache_misses = 109984
L2_total_cache_miss_rate = 0.5910
L2_total_cache_pending_hits = 36688
L2_total_cache_reservation_fails = 0
L2_total_cache_breakdown:
	L2_cache_stats_breakdown[GLOBAL_ACC_R][HIT] = 33242
	L2_cache_stats_breakdown[GLOBAL_ACC_R][HIT_RESERVED] = 36688
	L2_cache_stats_breakdown[GLOBAL_ACC_R][MISS] = 27002
	L2_cache_stats_breakdown[GLOBAL_ACC_R][RESERVATION_FAIL] = 0
	L2_cache_stats_breakdown[GLOBAL_ACC_R][SECTOR_MISS] = 81338
	L2_cache_stats_breakdown[LOCAL_ACC_R][HIT] = 0
	L2_cache_stats_breakdown[LOCAL_ACC_R][HIT_RESERVED] = 0
	L2_cache_stats_breakdown[LOCAL_ACC_R][MISS] = 0
	L2_cache_stats_breakdown[LOCAL_ACC_R][RESERVATION_FAIL] = 0
	L2_cache_stats_breakdown[LOCAL_ACC_R][SECTOR_MISS] = 0
	L2_cache_stats_breakdown[CONST_ACC_R][HIT] = 0
	L2_cache_stats_breakdown[CONST_ACC_R][HIT_RESERVED] = 0
	L2_cache_stats_breakdown[CONST_ACC_R][MISS] = 0
	L2_cache_stats_breakdown[CONST_ACC_R][RESERVATION_FAIL] = 0
	L2_cache_stats_breakdown[CONST_ACC_R][SECTOR_MISS] = 0
	L2_cache_stats_breakdown[TEXTURE_ACC_R][HIT] = 0
	L2_cache_stats_breakdown[TEXTURE_ACC_R][HIT_RESERVED] = 0
	L2_cache_stats_breakdown[TEXTURE_ACC_R][MISS] = 0
	L2_cache_stats_breakdown[TEXTURE_ACC_R][RESERVATION_FAIL] = 0
	L2_cache_stats_breakdown[TEXTURE_ACC_R][SECTOR_MISS] = 0
	L2_cache_stats_breakdown[GLOBAL_ACC_W][HIT] = 6191
	L2_cache_stats_breakdown[GLOBAL_ACC_W][HIT_RESERVED] = 0
	L2_cache_stats_breakdown[GLOBAL_ACC_W][MISS] = 327
	L2_cache_stats_breakdown[GLOBAL_ACC_W][RESERVATION_FAIL] = 0
	L2_cache_stats_breakdown[GLOBAL_ACC_W][SECTOR_MISS] = 1317
	L2_cache_stats_breakdown[LOCAL_ACC_W][HIT] = 0
	L2_cache_stats_breakdown[LOCAL_ACC_W][HIT_RESERVED] = 0
	L2_cache_stats_breakdown[LOCAL_ACC_W][MISS] = 0
	L2_cache_stats_breakdown[LOCAL_ACC_W][RESERVATION_FAIL] = 0
	L2_cache_stats_breakdown[LOCAL_ACC_W][SECTOR_MISS] = 0
	L2_cache_stats_breakdown[L1_WRBK_ACC][HIT] = 0
	L2_cache_stats_breakdown[L1_WRBK_ACC][HIT_RESERVED] = 0
	L2_cache_stats_breakdown[L1_WRBK_ACC][MISS] = 0
	L2_cache_stats_breakdown[L1_WRBK_ACC][RESERVATION_FAIL] = 0
	L2_cache_stats_breakdown[L1_WRBK_ACC][SECTOR_MISS] = 0
	L2_cache_stats_breakdown[L2_WRBK_ACC][HIT] = 0
	L2_cache_stats_breakdown[L2_WRBK_ACC][HIT_RESERVED] = 0
	L2_cache_stats_breakdown[L2_WRBK_ACC][MISS] = 0
	L2_cache_stats_breakdown[L2_WRBK_ACC][RESERVATION_FAIL] = 0
	L2_cache_stats_breakdown[L2_WRBK_ACC][SECTOR_MISS] = 0
	L2_cache_stats_breakdown[INST_ACC_R][HIT] = 0
	L2_cache_stats_breakdown[INST_ACC_R][HIT_RESERVED] = 0
	L2_cache_stats_breakdown[INST_ACC_R][MISS] = 0
	L2_cache_stats_breakdown[INST_ACC_R][RESERVATION_FAIL] = 0
	L2_cache_stats_breakdown[INST_ACC_R][SECTOR_MISS] = 0
	L2_cache_stats_breakdown[L1_WR_ALLOC_R][HIT] = 0
	L2_cache_stats_breakdown[L1_WR_ALLOC_R][HIT_RESERVED] = 0
	L2_cache_stats_breakdown[L1_WR_ALLOC_R][MISS] = 0
	L2_cache_stats_breakdown[L1_WR_ALLOC_R][RESERVATION_FAIL] = 0
	L2_cache_stats_breakdown[L1_WR_ALLOC_R][SECTOR_MISS] = 0
	L2_cache_stats_breakdown[L2_WR_ALLOC_R][HIT] = 0
	L2_cache_stats_breakdown[L2_WR_ALLOC_R][HIT_RESERVED] = 0
	L2_cache_stats_breakdown[L2_WR_ALLOC_R][MISS] = 0
	L2_cache_stats_breakdown[L2_WR_ALLOC_R][RESERVATION_FAIL] = 0
	L2_cache_stats_breakdown[L2_WR_ALLOC_R][SECTOR_MISS] = 0
	L2_cache_stats_breakdown[GLOBAL_ACC_R][TOTAL_ACCESS] = 178270
	L2_cache_stats_breakdown[GLOBAL_ACC_W][TOTAL_ACCESS] = 7835
L2_total_cache_reservation_fail_breakdown:
L2_cache_data_port_util = 0.018
L2_cache_fill_port_util = 0.049

icnt_total_pkts_mem_to_simt=186105
icnt_total_pkts_simt_to_mem=186105
LD_mem_lat_dist  0 0 0 0 0 0 0 0 0 0 0 0 0 0 0 0 0 0 0 0 0 0 0 0 0 0 0
ST_mem_lat_dist  0 0 0 0 0 0 0 0 0 0 0 0 0 0 0 0 0 0 0 0 0 0 0 0 0 0 0
----------------------------Interconnect-DETAILS--------------------------------
Class 0:
Packet latency average = 8.37596
	minimum = 5
	maximum = 67
Network latency average = 8.37596
	minimum = 5
	maximum = 67
Slowest packet = 305135
Flit latency average = 8.37596
	minimum = 5
	maximum = 67
Slowest flit = 305135
Fragmentation average = 0
	minimum = 0
	maximum = 0
Injected packet rate average = 0.0738339
	minimum = 0.0355486 (at node 10)
	maximum = 0.0892628 (at node 50)
Accepted packet rate average = 0.0738339
	minimum = 0.0355486 (at node 10)
	maximum = 0.0892628 (at node 50)
Injected flit rate average = 0.0738339
	minimum = 0.0355486 (at node 10)
	maximum = 0.0892628 (at node 50)
Accepted flit rate average= 0.0738339
	minimum = 0.0355486 (at node 10)
	maximum = 0.0892628 (at node 50)
Injected packet length average = 1
Accepted packet length average = 1
Total in-flight flits = 0 (0 measured)
====== Overall Traffic Statistics ======
====== Traffic class 0 ======
Packet latency average = 8.72767 (5 samples)
	minimum = 5 (5 samples)
	maximum = 81 (5 samples)
Network latency average = 8.72767 (5 samples)
	minimum = 5 (5 samples)
	maximum = 81 (5 samples)
Flit latency average = 8.72767 (5 samples)
	minimum = 5 (5 samples)
	maximum = 81 (5 samples)
Fragmentation average = 0 (5 samples)
	minimum = 0 (5 samples)
	maximum = 0 (5 samples)
Injected packet rate average = 0.0774066 (5 samples)
	minimum = 0.0423095 (5 samples)
	maximum = 0.0942263 (5 samples)
Accepted packet rate average = 0.0774066 (5 samples)
	minimum = 0.0423095 (5 samples)
	maximum = 0.0942263 (5 samples)
Injected flit rate average = 0.0774066 (5 samples)
	minimum = 0.0423095 (5 samples)
	maximum = 0.0942263 (5 samples)
Accepted flit rate average = 0.0774066 (5 samples)
	minimum = 0.0423095 (5 samples)
	maximum = 0.0942263 (5 samples)
Injected packet size average = 1 (5 samples)
Accepted packet size average = 1 (5 samples)
Hops average = 1 (5 samples)
----------------------------END-of-Interconnect-DETAILS-------------------------


gpgpu_simulation_time = 0 days, 0 hrs, 2 min, 49 sec (169 sec)
gpgpu_simulation_rate = 372269 (inst/sec)
gpgpu_simulation_rate = 546 (cycle/sec)
gpgpu_silicon_slowdown = 2595238x
GPGPU-Sim: synchronize waiting for inactive GPU simulation
GPGPU-Sim API: Stream Manager State
GPGPU-Sim: detected inactive GPU simulation thread
GPGPU-Sim: *** exit detected ***
