

        *** GPGPU-Sim Simulator Version 4.0.0  [build gpgpu-sim_git-commit-90ec3399763d7c8512cfe7dc193473086c38ca38_modified_0.0] ***


GPGPU-Sim PTX: simulation mode 0 (can change with PTX_SIM_MODE_FUNC environment variable:
               1=functional simulation only, 0=detailed performance simulator)
GPGPU-Sim PTX: overriding embedded ptx with ptx file (PTX_SIM_USE_PTX_FILE is set)
GPGPU-Sim: Configuration options:

-save_embedded_ptx                      0 # saves ptx files embedded in binary as <n>.ptx
-keep                                   0 # keep intermediate files created by GPGPU-Sim when interfacing with external programs
-gpgpu_ptx_save_converted_ptxplus                    0 # Saved converted ptxplus to a file
-gpgpu_occupancy_sm_number                   62 # The SM number to pass to ptxas when getting register usage for computing GPU occupancy. This parameter is required in the config.
-ptx_opcode_latency_int      4,13,4,5,145,32 # Opcode latencies for integers <ADD,MAX,MUL,MAD,DIV,SHFL>Default 1,1,19,25,145,32
-ptx_opcode_latency_fp          4,13,4,5,39 # Opcode latencies for single precision floating points <ADD,MAX,MUL,MAD,DIV>Default 1,1,1,1,30
-ptx_opcode_latency_dp         8,19,8,8,330 # Opcode latencies for double precision floating points <ADD,MAX,MUL,MAD,DIV>Default 8,8,8,8,335
-ptx_opcode_latency_sfu                  200 # Opcode latencies for SFU instructionsDefault 8
-ptx_opcode_latency_tesnor                   64 # Opcode latencies for Tensor instructionsDefault 64
-ptx_opcode_initiation_int          1,1,1,1,4,4 # Opcode initiation intervals for integers <ADD,MAX,MUL,MAD,DIV,SHFL>Default 1,1,4,4,32,4
-ptx_opcode_initiation_fp            1,2,1,1,4 # Opcode initiation intervals for single precision floating points <ADD,MAX,MUL,MAD,DIV>Default 1,1,1,1,5
-ptx_opcode_initiation_dp          2,8,8,8,130 # Opcode initiation intervals for double precision floating points <ADD,MAX,MUL,MAD,DIV>Default 8,8,8,8,130
-ptx_opcode_initiation_sfu                    2 # Opcode initiation intervals for sfu instructionsDefault 8
-ptx_opcode_initiation_tensor                   64 # Opcode initiation intervals for tensor instructionsDefault 64
-cdp_latency         7200,8000,100,12000,1600 # CDP API latency <cudaStreamCreateWithFlags, cudaGetParameterBufferV2_init_perWarp, cudaGetParameterBufferV2_perKernel, cudaLaunchDeviceV2_init_perWarp, cudaLaunchDevicV2_perKernel>Default 7200,8000,100,12000,1600
-network_mode                           1 # Interconnection network mode
-inter_config_file   config_kepler_islip.icnt # Interconnection network config file
-icnt_in_buffer_limit                   64 # in_buffer_limit
-icnt_out_buffer_limit                   64 # out_buffer_limit
-icnt_subnets                           2 # subnets
-icnt_arbiter_algo                      1 # arbiter_algo
-icnt_verbose                           0 # inct_verbose
-icnt_grant_cycles                      1 # grant_cycles
-gpgpu_ptx_use_cuobjdump                    1 # Use cuobjdump to extract ptx and sass from binaries
-gpgpu_experimental_lib_support                    0 # Try to extract code from cuda libraries [Broken because of unknown cudaGetExportTable]
-checkpoint_option                      0 #  checkpointing flag (0 = no checkpoint)
-checkpoint_kernel                      1 #  checkpointing during execution of which kernel (1- 1st kernel)
-checkpoint_CTA                         0 #  checkpointing after # of CTA (< less than total CTA)
-resume_option                          0 #  resume flag (0 = no resume)
-resume_kernel                          0 #  Resume from which kernel (1= 1st kernel)
-resume_CTA                             0 #  resume from which CTA 
-checkpoint_CTA_t                       0 #  resume from which CTA 
-checkpoint_insn_Y                      0 #  resume from which CTA 
-gpgpu_ptx_convert_to_ptxplus                    0 # Convert SASS (native ISA) to ptxplus and run ptxplus
-gpgpu_ptx_force_max_capability                   35 # Force maximum compute capability
-gpgpu_ptx_inst_debug_to_file                    0 # Dump executed instructions' debug information to file
-gpgpu_ptx_inst_debug_file       inst_debug.txt # Executed instructions' debug output file
-gpgpu_ptx_inst_debug_thread_uid                    1 # Thread UID for executed instructions' debug output
-gpgpu_simd_model                       1 # 1 = post-dominator
-gpgpu_shader_core_pipeline              2048:32 # shader core pipeline config, i.e., {<nthread>:<warpsize>}
-gpgpu_tex_cache:l1  N:16:128:24,L:R:m:N:L,T:128:4,128:2 # per-shader L1 texture cache  (READ-ONLY) config  {<nsets>:<bsize>:<assoc>,<rep>:<wr>:<alloc>:<wr_alloc>,<mshr>:<N>:<merge>,<mq>:<rf>}
-gpgpu_const_cache:l1 N:128:64:2,L:R:f:N:L,S:2:64,4 # per-shader L1 constant memory cache  (READ-ONLY) config  {<nsets>:<bsize>:<assoc>,<rep>:<wr>:<alloc>:<wr_alloc>,<mshr>:<N>:<merge>,<mq>} 
-gpgpu_cache:il1     N:8:128:4,L:R:f:N:L,S:2:48,4 # shader L1 instruction cache config  {<nsets>:<bsize>:<assoc>,<rep>:<wr>:<alloc>:<wr_alloc>,<mshr>:<N>:<merge>,<mq>} 
-gpgpu_cache:dl1     S:4:128:32,L:L:s:N:L,A:256:8,16:0,32 # per-shader L1 data cache config  {<nsets>:<bsize>:<assoc>,<rep>:<wr>:<alloc>:<wr_alloc>,<mshr>:<N>:<merge>,<mq> | none}
-gpgpu_l1_banks                         1 # The number of L1 cache banks
-gpgpu_l1_banks_byte_interleaving                   32 # l1 banks byte interleaving granularity
-gpgpu_l1_banks_hashing_function                    0 # l1 banks hashing function
-gpgpu_l1_latency                      82 # L1 Hit Latency
-gpgpu_smem_latency                     3 # smem Latency
-gpgpu_cache:dl1PrefL1 S:4:128:96,L:L:s:N:L,A:256:8,16:0,32 # per-shader L1 data cache config  {<nsets>:<bsize>:<assoc>,<rep>:<wr>:<alloc>:<wr_alloc>,<mshr>:<N>:<merge>,<mq> | none}
-gpgpu_cache:dl1PrefShared S:4:128:32,L:L:s:N:L,A:256:8,16:0,32 # per-shader L1 data cache config  {<nsets>:<bsize>:<assoc>,<rep>:<wr>:<alloc>:<wr_alloc>,<mshr>:<N>:<merge>,<mq> | none}
-gpgpu_gmem_skip_L1D                    1 # global memory access skip L1D cache (implements -Xptxas -dlcm=cg, default=no skip)
-gpgpu_perfect_mem                      0 # enable perfect memory mode (no cache miss)
-n_regfile_gating_group                    4 # group of lanes that should be read/written together)
-gpgpu_clock_gated_reg_file                    0 # enable clock gated reg file for power calculations
-gpgpu_clock_gated_lanes                    0 # enable clock gated lanes for power calculations
-gpgpu_shader_registers                65536 # Number of registers per shader core. Limits number of concurrent CTAs. (default 8192)
-gpgpu_registers_per_block                 8192 # Maximum number of registers per CTA. (default 8192)
-gpgpu_ignore_resources_limitation                    1 # gpgpu_ignore_resources_limitation (default 0)
-gpgpu_shader_cta                      16 # Maximum number of concurrent CTAs in shader (default 8)
-gpgpu_num_cta_barriers                   16 # Maximum number of named barriers per CTA (default 16)
-gpgpu_n_clusters                      14 # number of processing clusters
-gpgpu_n_cores_per_cluster                    1 # number of simd cores per cluster
-gpgpu_n_cluster_ejection_buffer_size                   32 # number of packets in ejection buffer
-gpgpu_n_ldst_response_buffer_size                    2 # number of response packets in ld/st unit ejection buffer
-gpgpu_shmem_per_block                49152 # Size of shared memory per thread block or CTA (default 48kB)
-gpgpu_shmem_size                   49152 # Size of shared memory per shader core (default 16kB)
-gpgpu_adaptive_cache_config                    0 # adaptive_cache_config
-gpgpu_shmem_sizeDefault                49152 # Size of shared memory per shader core (default 16kB)
-gpgpu_shmem_size_PrefL1                16384 # Size of shared memory per shader core (default 16kB)
-gpgpu_shmem_size_PrefShared                49152 # Size of shared memory per shader core (default 16kB)
-gpgpu_shmem_num_banks                   32 # Number of banks in the shared memory in each shader core (default 16)
-gpgpu_shmem_limited_broadcast                    0 # Limit shared memory to do one broadcast per cycle (default on)
-gpgpu_shmem_warp_parts                    1 # Number of portions a warp is divided into for shared memory bank conflict check 
-gpgpu_mem_unit_ports                    1 # The number of memory transactions allowed per core cycle
-gpgpu_shmem_warp_parts                    1 # Number of portions a warp is divided into for shared memory bank conflict check 
-gpgpu_warpdistro_shader                   -1 # Specify which shader core to collect the warp size distribution from
-gpgpu_warp_issue_shader                    0 # Specify which shader core to collect the warp issue distribution from
-gpgpu_local_mem_map                    1 # Mapping from local memory space address to simulated GPU physical address space (default = enabled)
-gpgpu_num_reg_banks                   16 # Number of register banks (default = 8)
-gpgpu_reg_bank_use_warp_id                    0 # Use warp ID in mapping registers to banks (default = off)
-gpgpu_sub_core_model                    0 # Sub Core Volta/Pascal model (default = off)
-gpgpu_enable_specialized_operand_collector                    1 # enable_specialized_operand_collector
-gpgpu_operand_collector_num_units_sp                   12 # number of collector units (default = 4)
-gpgpu_operand_collector_num_units_dp                    6 # number of collector units (default = 0)
-gpgpu_operand_collector_num_units_sfu                    6 # number of collector units (default = 4)
-gpgpu_operand_collector_num_units_int                    0 # number of collector units (default = 0)
-gpgpu_operand_collector_num_units_tensor_core                    4 # number of collector units (default = 4)
-gpgpu_operand_collector_num_units_mem                    8 # number of collector units (default = 2)
-gpgpu_operand_collector_num_units_gen                    0 # number of collector units (default = 0)
-gpgpu_operand_collector_num_in_ports_sp                    2 # number of collector unit in ports (default = 1)
-gpgpu_operand_collector_num_in_ports_dp                    1 # number of collector unit in ports (default = 0)
-gpgpu_operand_collector_num_in_ports_sfu                    2 # number of collector unit in ports (default = 1)
-gpgpu_operand_collector_num_in_ports_int                    0 # number of collector unit in ports (default = 0)
-gpgpu_operand_collector_num_in_ports_tensor_core                    1 # number of collector unit in ports (default = 1)
-gpgpu_operand_collector_num_in_ports_mem                    1 # number of collector unit in ports (default = 1)
-gpgpu_operand_collector_num_in_ports_gen                    0 # number of collector unit in ports (default = 0)
-gpgpu_operand_collector_num_out_ports_sp                    2 # number of collector unit in ports (default = 1)
-gpgpu_operand_collector_num_out_ports_dp                    1 # number of collector unit in ports (default = 0)
-gpgpu_operand_collector_num_out_ports_sfu                    2 # number of collector unit in ports (default = 1)
-gpgpu_operand_collector_num_out_ports_int                    0 # number of collector unit in ports (default = 0)
-gpgpu_operand_collector_num_out_ports_tensor_core                    1 # number of collector unit in ports (default = 1)
-gpgpu_operand_collector_num_out_ports_mem                    1 # number of collector unit in ports (default = 1)
-gpgpu_operand_collector_num_out_ports_gen                    0 # number of collector unit in ports (default = 0)
-gpgpu_coalesce_arch                   35 # Coalescing arch (GT200 = 13, Fermi = 20)
-gpgpu_num_sched_per_core                    4 # Number of warp schedulers per core
-gpgpu_max_insn_issue_per_warp                    2 # Max number of instructions that can be issued per warp in one cycle by scheduler (either 1 or 2)
-gpgpu_dual_issue_diff_exec_units                    0 # should dual issue use two different execution unit resources (Default = 1)
-gpgpu_simt_core_sim_order                    1 # Select the simulation order of cores in a cluster (0=Fix, 1=Round-Robin)
-gpgpu_pipeline_widths 6,4,0,2,1,6,4,0,2,1,12 # Pipeline widths ID_OC_SP,ID_OC_DP,ID_OC_INT,ID_OC_SFU,ID_OC_MEM,OC_EX_SP,OC_EX_DP,OC_EX_INT,OC_EX_SFU,OC_EX_MEM,EX_WB,ID_OC_TENSOR_CORE,OC_EX_TENSOR_CORE
-gpgpu_tensor_core_avail                    0 # Tensor Core Available (default=0)
-gpgpu_num_sp_units                     6 # Number of SP units (default=1)
-gpgpu_num_dp_units                     4 # Number of DP units (default=0)
-gpgpu_num_int_units                    0 # Number of INT units (default=0)
-gpgpu_num_sfu_units                    2 # Number of SF units (default=1)
-gpgpu_num_tensor_core_units                    0 # Number of tensor_core units (default=1)
-gpgpu_num_mem_units                    1 # Number if ldst units (default=1) WARNING: not hooked up to anything
-gpgpu_scheduler                      gto # Scheduler configuration: < lrr | gto | two_level_active > If two_level_active:<num_active_warps>:<inner_prioritization>:<outer_prioritization>For complete list of prioritization values see shader.h enum scheduler_prioritization_typeDefault: gto
-gpgpu_concurrent_kernel_sm                    0 # Support concurrent kernels on a SM (default = disabled)
-gpgpu_perfect_inst_const_cache                    0 # perfect inst and const cache mode, so all inst and const hits in the cache(default = disabled)
-gpgpu_inst_fetch_throughput                    8 # the number of fetched intruction per warp each cycle
-gpgpu_reg_file_port_throughput                    2 # the number ports of the register file
-specialized_unit_1         0,4,4,4,4,BRA # specialized unit config {<enabled>,<num_units>:<latency>:<initiation>,<ID_OC_SPEC>:<OC_EX_SPEC>,<NAME>}
-specialized_unit_2         0,4,4,4,4,BRA # specialized unit config {<enabled>,<num_units>:<latency>:<initiation>,<ID_OC_SPEC>:<OC_EX_SPEC>,<NAME>}
-specialized_unit_3         0,4,4,4,4,BRA # specialized unit config {<enabled>,<num_units>:<latency>:<initiation>,<ID_OC_SPEC>:<OC_EX_SPEC>,<NAME>}
-specialized_unit_4         0,4,4,4,4,BRA # specialized unit config {<enabled>,<num_units>:<latency>:<initiation>,<ID_OC_SPEC>:<OC_EX_SPEC>,<NAME>}
-specialized_unit_5         0,4,4,4,4,BRA # specialized unit config {<enabled>,<num_units>:<latency>:<initiation>,<ID_OC_SPEC>:<OC_EX_SPEC>,<NAME>}
-specialized_unit_6         0,4,4,4,4,BRA # specialized unit config {<enabled>,<num_units>:<latency>:<initiation>,<ID_OC_SPEC>:<OC_EX_SPEC>,<NAME>}
-specialized_unit_7         0,4,4,4,4,BRA # specialized unit config {<enabled>,<num_units>:<latency>:<initiation>,<ID_OC_SPEC>:<OC_EX_SPEC>,<NAME>}
-specialized_unit_8         0,4,4,4,4,BRA # specialized unit config {<enabled>,<num_units>:<latency>:<initiation>,<ID_OC_SPEC>:<OC_EX_SPEC>,<NAME>}
-gpgpu_perf_sim_memcpy                    1 # Fill the L2 cache on memcpy
-gpgpu_simple_dram_model                    0 # simple_dram_model with fixed latency and BW
-gpgpu_dram_scheduler                    1 # 0 = fifo, 1 = FR-FCFS (defaul)
-gpgpu_dram_partition_queues          32:32:32:32 # i2$:$2d:d2$:$2i
-l2_ideal                               0 # Use a ideal L2 cache that always hit
-gpgpu_cache:dl2     S:32:128:16,L:B:m:L:P,A:256:64,16:0,32 # unified banked L2 data cache config  {<nsets>:<bsize>:<assoc>,<rep>:<wr>:<alloc>:<wr_alloc>,<mshr>:<N>:<merge>,<mq>}
-gpgpu_cache:dl2_texture_only                    0 # L2 cache used for texture only
-gpgpu_n_mem                           12 # number of memory modules (e.g. memory controllers) in gpu
-gpgpu_n_sub_partition_per_mchannel                    2 # number of memory subpartition in each memory module
-gpgpu_n_mem_per_ctrlr                    1 # number of memory chips per memory controller
-gpgpu_memlatency_stat                   14 # track and display latency statistics 0x2 enables MC, 0x4 enables queue logs
-gpgpu_frfcfs_dram_sched_queue_size                   64 # 0 = unlimited (default); # entries per chip
-gpgpu_dram_return_queue_size                   64 # 0 = unlimited (default); # entries per chip
-gpgpu_dram_buswidth                    4 # default = 4 bytes (8 bytes per cycle at DDR)
-gpgpu_dram_burst_length                    8 # Burst length of each DRAM request (default = 4 data bus cycle)
-dram_data_command_freq_ratio                    4 # Frequency ratio between DRAM data bus and command bus (default = 2 times, i.e. DDR)
-gpgpu_dram_timing_opt nbk=16:CCD=2:RRD=8:RCD=16:RAS=37:RP=16:RC=52: CL=16:WL=6:CDLR=7:WR=16:nbkgrp=4:CCDL=4:RTPL=3 # DRAM timing parameters = {nbk:tCCD:tRRD:tRCD:tRAS:tRP:tRC:CL:WL:tCDLR:tWR:nbkgrp:tCCDL:tRTPL}
-gpgpu_l2_rop_latency                  120 # ROP queue latency (default 85)
-dram_latency                         100 # DRAM latency (default 30)
-dram_dual_bus_interface                    0 # dual_bus_interface (default = 0) 
-dram_bnk_indexing_policy                    0 # dram_bnk_indexing_policy (0 = normal indexing, 1 = Xoring with the higher bits) (Default = 0)
-dram_bnkgrp_indexing_policy                    1 # dram_bnkgrp_indexing_policy (0 = take higher bits, 1 = take lower bits) (Default = 0)
-dram_seperate_write_queue_enable                    0 # Seperate_Write_Queue_Enable
-dram_write_queue_size             32:28:16 # Write_Queue_Size
-dram_elimnate_rw_turnaround                    0 # elimnate_rw_turnaround i.e set tWTR and tRTW = 0
-icnt_flit_size                        40 # icnt_flit_size
-gpgpu_mem_addr_mapping dramid@8;00000000.00000000.00000000.00000000.0000RRRR.RRRRRRRR.RBBBCCCC.BCCSSSSS # mapping memory address to dram model {dramid@<start bit>;<memory address map>}
-gpgpu_mem_addr_test                    0 # run sweep test to check address mapping for aliased address
-gpgpu_mem_address_mask                    1 # 0 = old addressing mask, 1 = new addressing mask, 2 = new add. mask + flipped bank sel and chip sel bits
-gpgpu_memory_partition_indexing                    0 # 0 = no indexing, 1 = bitwise xoring, 2 = IPoly, 3 = custom indexing
-gpuwattch_xml_file         gpuwattch.xml # GPUWattch XML file
-power_simulation_enabled                    1 # Turn on power simulator (1=On, 0=Off)
-power_per_cycle_dump                    0 # Dump detailed power output each cycle
-power_trace_enabled                    0 # produce a file for the power trace (1=On, 0=Off)
-power_trace_zlevel                     6 # Compression level of the power trace output log (0=no comp, 9=highest)
-steady_power_levels_enabled                    0 # produce a file for the steady power levels (1=On, 0=Off)
-steady_state_definition                  8:4 # allowed deviation:number of samples
-gpgpu_max_cycle                        0 # terminates gpu simulation early (0 = no limit)
-gpgpu_max_insn                         0 # terminates gpu simulation early (0 = no limit)
-gpgpu_max_cta                          0 # terminates gpu simulation early (0 = no limit)
-gpgpu_max_completed_cta                    0 # terminates gpu simulation early (0 = no limit)
-gpgpu_runtime_stat                   500 # display runtime statistics such as dram utilization {<freq>:<flag>}
-liveness_message_freq                    1 # Minimum number of seconds between simulation liveness messages (0 = always print)
-gpgpu_compute_capability_major                    3 # Major compute capability version number
-gpgpu_compute_capability_minor                    5 # Minor compute capability version number
-gpgpu_flush_l1_cache                    1 # Flush L1 cache at the end of each kernel call
-gpgpu_flush_l2_cache                    0 # Flush L2 cache at the end of each kernel call
-gpgpu_deadlock_detect                    1 # Stop the simulation at deadlock (1=on (default), 0=off)
-gpgpu_ptx_instruction_classification                    0 # if enabled will classify ptx instruction types per kernel (Max 255 kernels now)
-gpgpu_ptx_sim_mode                     0 # Select between Performance (default) or Functional simulation (1)
-gpgpu_clock_domains 837.0:837.0:837.0:1502.0 # Clock Domain Frequencies in MhZ {<Core Clock>:<ICNT Clock>:<L2 Clock>:<DRAM Clock>}
-gpgpu_max_concurrent_kernel                    8 # maximum kernels that can run concurrently on GPU
-gpgpu_cflog_interval                    0 # Interval between each snapshot in control flow logger
-visualizer_enabled                     0 # Turn on visualizer output (1=On, 0=Off)
-visualizer_outputfile                 NULL # Specifies the output log file for visualizer
-visualizer_zlevel                      6 # Compression level of the visualizer output log (0=no comp, 9=highest)
-gpgpu_stack_size_limit                 1024 # GPU thread stack size
-gpgpu_heap_size_limit              8388608 # GPU malloc heap size 
-gpgpu_runtime_sync_depth_limit                    2 # GPU device runtime synchronize depth
-gpgpu_runtime_pending_launch_count_limit                 2048 # GPU device runtime pending launch count
-trace_enabled                          0 # Turn on traces
-trace_components                    none # comma seperated list of traces to enable. Complete list found in trace_streams.tup. Default none
-trace_sampling_core                    0 # The core which is printed using CORE_DPRINTF. Default 0
-trace_sampling_memory_partition                   -1 # The memory partition which is printed using MEMPART_DPRINTF. Default -1 (i.e. all)
-enable_ptx_file_line_stats                    1 # Turn on PTX source line statistic profiling. (1 = On)
-ptx_line_stats_filename gpgpu_inst_stats.txt # Output file for PTX source line statistics.
-gpgpu_kernel_launch_latency                    0 # Kernel launch latency in cycles. Default: 0
-gpgpu_cdp_enabled                      0 # Turn on CDP
-gpgpu_TB_launch_latency                    0 # thread block launch latency in cycles. Default: 0
DRAM Timing Options:
nbk                                    16 # number of banks
CCD                                     2 # column to column delay
RRD                                     8 # minimal delay between activation of rows in different banks
RCD                                    16 # row to column delay
RAS                                    37 # time needed to activate row
RP                                     16 # time needed to precharge (deactivate) row
RC                                     52 # row cycle time
CDLR                                    7 # switching from write to read (changes tWTR)
WR                                     16 # last data-in to row precharge
CL                                     16 # CAS latency
WL                                      6 # Write latency
nbkgrp                                  4 # number of bank groups
CCDL                                    4 # column to column delay between accesses to different bank groups
RTPL                                    3 # read to precharge delay between accesses to different bank groups
Total number of memory sub partition = 24
addr_dec_mask[CHIP]  = 0000000000000000 	high:64 low:0
addr_dec_mask[BK]    = 0000000000007080 	high:15 low:7
addr_dec_mask[ROW]   = 000000000fff8000 	high:28 low:15
addr_dec_mask[COL]   = 0000000000000f7f 	high:12 low:0
addr_dec_mask[BURST] = 000000000000001f 	high:5 low:0
sub_partition_id_mask = 0000000000000080
GPGPU-Sim uArch: clock freqs: 837000000.000000:837000000.000000:837000000.000000:1502000000.000000
GPGPU-Sim uArch: clock periods: 0.00000000119474313023:0.00000000119474313023:0.00000000119474313023:0.00000000066577896138
*** Initializing Memory Statistics ***
GPGPU-Sim uArch: interconnect node map (shaderID+MemID to icntID)
GPGPU-Sim uArch: Memory nodes ID start from index: 14
GPGPU-Sim uArch:    0   1   2   3   4   5
GPGPU-Sim uArch:    6   7   8   9  10  11
GPGPU-Sim uArch:   12  13  14  15  16  17
GPGPU-Sim uArch:   18  19  20  21  22  23
GPGPU-Sim uArch:   24  25  26  27  28  29
GPGPU-Sim uArch:   30  31  32  33  34  35
GPGPU-Sim uArch:   36  37
GPGPU-Sim uArch: interconnect node reverse map (icntID to shaderID+MemID)
GPGPU-Sim uArch: Memory nodes start from ID: 14
GPGPU-Sim uArch:    0   1   2   3   4   5
GPGPU-Sim uArch:    6   7   8   9  10  11
GPGPU-Sim uArch:   12  13  14  15  16  17
GPGPU-Sim uArch:   18  19  20  21  22  23
GPGPU-Sim uArch:   24  25  26  27  28  29
GPGPU-Sim uArch:   30  31  32  33  34  35
GPGPU-Sim uArch:   36  37
0d0a0c32a18a6f5bd649e8f48081228c  /home/joshua/gpgpu_A4/gpu-rodinia/cuda/nw/a.out
Extracting PTX file and ptxas options    1: a.1.sm_52.ptx -arch=sm_52
GPGPU-Sim uArch: performance model initialization complete.
self exe links to: /home/joshua/gpgpu_A4/gpu-rodinia/cuda/nw/a.out
self exe links to: /home/joshua/gpgpu_A4/gpu-rodinia/cuda/nw/a.out
11.0
GPGPU-Sim PTX: __cudaRegisterFatBinary, fat_cubin_handle = 1, filename=default
self exe links to: /home/joshua/gpgpu_A4/gpu-rodinia/cuda/nw/a.out
Running md5sum using "md5sum /home/joshua/gpgpu_A4/gpu-rodinia/cuda/nw/a.out "
self exe links to: /home/joshua/gpgpu_A4/gpu-rodinia/cuda/nw/a.out
Extracting specific PTX file named a.1.sm_52.ptx 
GPGPU-Sim PTX: __cudaRegisterFunction _Z20needle_cuda_shared_2PiS_iiii : hostFun 0x0x560bbe776e28, fat_cubin_handle = 1
GPGPU-Sim PTX: Parsing a.1.sm_52.ptx
GPGPU-Sim PTX: allocating shared region for "_ZZ20needle_cuda_shared_1PiS_iiiiE4temp" from 0x0 to 0x484 (shared memory space)
GPGPU-Sim PTX: allocating shared region for "_ZZ20needle_cuda_shared_1PiS_iiiiE3ref" from 0x500 to 0x900 (shared memory space)
GPGPU-Sim PTX: instruction assembly for function '_Z20needle_cuda_shared_1PiS_iiii'...   done.
GPGPU-Sim PTX: allocating shared region for "_ZZ20needle_cuda_shared_2PiS_iiiiE4temp" from 0x0 to 0x484 (shared memory space)
GPGPU-Sim PTX: allocating shared region for "_ZZ20needle_cuda_shared_2PiS_iiiiE3ref" from 0x500 to 0x900 (shared memory space)
GPGPU-Sim PTX: instruction assembly for function '_Z20needle_cuda_shared_2PiS_iiii'...   done.
GPGPU-Sim PTX: finished parsing EMBEDDED .ptx file a.1.sm_52.ptx
GPGPU-Sim PTX: loading globals with explicit initializers... 
GPGPU-Sim PTX: finished loading globals (0 bytes total).
GPGPU-Sim PTX: loading constants with explicit initializers...  done.
GPGPU-Sim PTX: Loading PTXInfo from a.1.sm_52.ptx
GPGPU-Sim PTX: Kernel '_Z20needle_cuda_shared_2PiS_iiii' : regs=32, lmem=0, smem=2180, cmem=352
GPGPU-Sim PTX: Kernel '_Z20needle_cuda_shared_1PiS_iiii' : regs=32, lmem=0, smem=2180, cmem=352
GPGPU-Sim PTX: __cudaRegisterFunction _Z20needle_cuda_shared_1PiS_iiii : hostFun 0x0x560bbe776c32, fat_cubin_handle = 1
WG size of kernel = 16 
Start Needleman-Wunsch
Processing top-left matrix
GPGPU-Sim PTX: Setting up arguments for 8 bytes starting at 0x7fff4722bda8..
GPGPU-Sim PTX: Setting up arguments for 8 bytes starting at 0x7fff4722bda0..
GPGPU-Sim PTX: Setting up arguments for 4 bytes starting at 0x7fff4722bd9c..
GPGPU-Sim PTX: Setting up arguments for 4 bytes starting at 0x7fff4722bd98..
GPGPU-Sim PTX: Setting up arguments for 4 bytes starting at 0x7fff4722bd94..
GPGPU-Sim PTX: Setting up arguments for 4 bytes starting at 0x7fff4722bd90..

GPGPU-Sim PTX: cudaLaunch for 0x0x560bbe776c32 (mode=performance simulation) on stream 0
GPGPU-Sim PTX: finding reconvergence points for '_Z20needle_cuda_shared_1PiS_iiii'...
GPGPU-Sim PTX: Finding dominators for '_Z20needle_cuda_shared_1PiS_iiii'...
GPGPU-Sim PTX: Finding immediate dominators for '_Z20needle_cuda_shared_1PiS_iiii'...
GPGPU-Sim PTX: Finding postdominators for '_Z20needle_cuda_shared_1PiS_iiii'...
GPGPU-Sim PTX: Finding immediate postdominators for '_Z20needle_cuda_shared_1PiS_iiii'...
GPGPU-Sim PTX: pre-decoding instructions for '_Z20needle_cuda_shared_1PiS_iiii'...
GPGPU-Sim PTX: reconvergence points for _Z20needle_cuda_shared_1PiS_iiii...
GPGPU-Sim PTX:  1 (potential) branch divergence @  PC=0x088 (a.1.sm_52.ptx:53) @%p16 bra BB0_2;
GPGPU-Sim PTX:    immediate post dominator      @  PC=0x0b0 (a.1.sm_52.ptx:61) cvta.to.global.u64 %rd6, %rd2;
GPGPU-Sim PTX:  2 (potential) branch divergence @  PC=0x350 (a.1.sm_52.ptx:145) @%p17 bra BB0_4;
GPGPU-Sim PTX:    immediate post dominator      @  PC=0x3a8 (a.1.sm_52.ptx:159) bar.sync 0;
GPGPU-Sim PTX:  3 (potential) branch divergence @  PC=0x3b8 (a.1.sm_52.ptx:161) @%p18 bra BB0_6;
GPGPU-Sim PTX:    immediate post dominator      @  PC=0x410 (a.1.sm_52.ptx:175) bar.sync 0;
GPGPU-Sim PTX:  4 (potential) branch divergence @  PC=0x420 (a.1.sm_52.ptx:177) @%p19 bra BB0_8;
GPGPU-Sim PTX:    immediate post dominator      @  PC=0x478 (a.1.sm_52.ptx:191) bar.sync 0;
GPGPU-Sim PTX:  5 (potential) branch divergence @  PC=0x488 (a.1.sm_52.ptx:193) @%p20 bra BB0_10;
GPGPU-Sim PTX:    immediate post dominator      @  PC=0x4e0 (a.1.sm_52.ptx:207) bar.sync 0;
GPGPU-Sim PTX:  6 (potential) branch divergence @  PC=0x4f0 (a.1.sm_52.ptx:209) @%p21 bra BB0_12;
GPGPU-Sim PTX:    immediate post dominator      @  PC=0x548 (a.1.sm_52.ptx:223) bar.sync 0;
GPGPU-Sim PTX:  7 (potential) branch divergence @  PC=0x558 (a.1.sm_52.ptx:225) @%p22 bra BB0_14;
GPGPU-Sim PTX:    immediate post dominator      @  PC=0x5b0 (a.1.sm_52.ptx:239) bar.sync 0;
GPGPU-Sim PTX:  8 (potential) branch divergence @  PC=0x5c0 (a.1.sm_52.ptx:241) @%p23 bra BB0_16;
GPGPU-Sim PTX:    immediate post dominator      @  PC=0x618 (a.1.sm_52.ptx:255) bar.sync 0;
GPGPU-Sim PTX:  9 (potential) branch divergence @  PC=0x628 (a.1.sm_52.ptx:257) @%p24 bra BB0_18;
GPGPU-Sim PTX:    immediate post dominator      @  PC=0x680 (a.1.sm_52.ptx:271) bar.sync 0;
GPGPU-Sim PTX: 10 (potential) branch divergence @  PC=0x690 (a.1.sm_52.ptx:273) @%p25 bra BB0_20;
GPGPU-Sim PTX:    immediate post dominator      @  PC=0x6e8 (a.1.sm_52.ptx:287) bar.sync 0;
GPGPU-Sim PTX: 11 (potential) branch divergence @  PC=0x6f8 (a.1.sm_52.ptx:289) @%p26 bra BB0_22;
GPGPU-Sim PTX:    immediate post dominator      @  PC=0x750 (a.1.sm_52.ptx:303) bar.sync 0;
GPGPU-Sim PTX: 12 (potential) branch divergence @  PC=0x760 (a.1.sm_52.ptx:305) @%p27 bra BB0_24;
GPGPU-Sim PTX:    immediate post dominator      @  PC=0x7b8 (a.1.sm_52.ptx:319) bar.sync 0;
GPGPU-Sim PTX: 13 (potential) branch divergence @  PC=0x7c8 (a.1.sm_52.ptx:321) @%p28 bra BB0_26;
GPGPU-Sim PTX:    immediate post dominator      @  PC=0x820 (a.1.sm_52.ptx:335) bar.sync 0;
GPGPU-Sim PTX: 14 (potential) branch divergence @  PC=0x830 (a.1.sm_52.ptx:337) @%p29 bra BB0_28;
GPGPU-Sim PTX:    immediate post dominator      @  PC=0x888 (a.1.sm_52.ptx:351) bar.sync 0;
GPGPU-Sim PTX: 15 (potential) branch divergence @  PC=0x898 (a.1.sm_52.ptx:353) @%p30 bra BB0_30;
GPGPU-Sim PTX:    immediate post dominator      @  PC=0x8f0 (a.1.sm_52.ptx:367) bar.sync 0;
GPGPU-Sim PTX: 16 (potential) branch divergence @  PC=0x900 (a.1.sm_52.ptx:369) @%p31 bra BB0_32;
GPGPU-Sim PTX:    immediate post dominator      @  PC=0x958 (a.1.sm_52.ptx:383) bar.sync 0;
GPGPU-Sim PTX: 17 (potential) branch divergence @  PC=0x968 (a.1.sm_52.ptx:385) @%p32 bra BB0_34;
GPGPU-Sim PTX:    immediate post dominator      @  PC=0x9c0 (a.1.sm_52.ptx:399) bar.sync 0;
GPGPU-Sim PTX: 18 (potential) branch divergence @  PC=0x9c8 (a.1.sm_52.ptx:400) @%p31 bra BB0_36;
GPGPU-Sim PTX:    immediate post dominator      @  PC=0xa20 (a.1.sm_52.ptx:414) bar.sync 0;
GPGPU-Sim PTX: 19 (potential) branch divergence @  PC=0xa28 (a.1.sm_52.ptx:415) @%p30 bra BB0_38;
GPGPU-Sim PTX:    immediate post dominator      @  PC=0xa80 (a.1.sm_52.ptx:429) bar.sync 0;
GPGPU-Sim PTX: 20 (potential) branch divergence @  PC=0xa88 (a.1.sm_52.ptx:430) @%p29 bra BB0_40;
GPGPU-Sim PTX:    immediate post dominator      @  PC=0xae0 (a.1.sm_52.ptx:444) bar.sync 0;
GPGPU-Sim PTX: 21 (potential) branch divergence @  PC=0xae8 (a.1.sm_52.ptx:445) @%p28 bra BB0_42;
GPGPU-Sim PTX:    immediate post dominator      @  PC=0xb40 (a.1.sm_52.ptx:459) bar.sync 0;
GPGPU-Sim PTX: 22 (potential) branch divergence @  PC=0xb48 (a.1.sm_52.ptx:460) @%p27 bra BB0_44;
GPGPU-Sim PTX:    immediate post dominator      @  PC=0xba0 (a.1.sm_52.ptx:474) bar.sync 0;
GPGPU-Sim PTX: 23 (potential) branch divergence @  PC=0xba8 (a.1.sm_52.ptx:475) @%p26 bra BB0_46;
GPGPU-Sim PTX:    immediate post dominator      @  PC=0xc00 (a.1.sm_52.ptx:489) bar.sync 0;
GPGPU-Sim PTX: 24 (potential) branch divergence @  PC=0xc08 (a.1.sm_52.ptx:490) @%p25 bra BB0_48;
GPGPU-Sim PTX:    immediate post dominator      @  PC=0xc60 (a.1.sm_52.ptx:504) bar.sync 0;
GPGPU-Sim PTX: 25 (potential) branch divergence @  PC=0xc68 (a.1.sm_52.ptx:505) @%p24 bra BB0_50;
GPGPU-Sim PTX:    immediate post dominator      @  PC=0xcc0 (a.1.sm_52.ptx:519) bar.sync 0;
GPGPU-Sim PTX: 26 (potential) branch divergence @  PC=0xcc8 (a.1.sm_52.ptx:520) @%p23 bra BB0_52;
GPGPU-Sim PTX:    immediate post dominator      @  PC=0xd20 (a.1.sm_52.ptx:534) bar.sync 0;
GPGPU-Sim PTX: 27 (potential) branch divergence @  PC=0xd28 (a.1.sm_52.ptx:535) @%p22 bra BB0_54;
GPGPU-Sim PTX:    immediate post dominator      @  PC=0xd80 (a.1.sm_52.ptx:549) bar.sync 0;
GPGPU-Sim PTX: 28 (potential) branch divergence @  PC=0xd88 (a.1.sm_52.ptx:550) @%p21 bra BB0_56;
GPGPU-Sim PTX:    immediate post dominator      @  PC=0xde0 (a.1.sm_52.ptx:564) bar.sync 0;
GPGPU-Sim PTX: 29 (potential) branch divergence @  PC=0xde8 (a.1.sm_52.ptx:565) @%p20 bra BB0_58;
GPGPU-Sim PTX:    immediate post dominator      @  PC=0xe40 (a.1.sm_52.ptx:579) bar.sync 0;
GPGPU-Sim PTX: 30 (potential) branch divergence @  PC=0xe48 (a.1.sm_52.ptx:580) @%p19 bra BB0_60;
GPGPU-Sim PTX:    immediate post dominator      @  PC=0xea0 (a.1.sm_52.ptx:594) bar.sync 0;
GPGPU-Sim PTX: 31 (potential) branch divergence @  PC=0xea8 (a.1.sm_52.ptx:595) @%p18 bra BB0_62;
GPGPU-Sim PTX:    immediate post dominator      @  PC=0xf00 (a.1.sm_52.ptx:609) bar.sync 0;
GPGPU-Sim PTX: 32 (potential) branch divergence @  PC=0xf08 (a.1.sm_52.ptx:610) @%p17 bra BB0_64;
GPGPU-Sim PTX:    immediate post dominator      @  PC=0xf60 (a.1.sm_52.ptx:624) bar.sync 0;
GPGPU-Sim PTX: ... end of reconvergence points for _Z20needle_cuda_shared_1PiS_iiii
GPGPU-Sim PTX: ... done pre-decoding instructions for '_Z20needle_cuda_shared_1PiS_iiii'.
GPGPU-Sim PTX: pushing kernel '_Z20needle_cuda_shared_1PiS_iiii' to stream 0, gridDim= (1,1,1) blockDim = (16,1,1) 
GPGPU-Sim uArch: Shader 0 bind to kernel 1 '_Z20needle_cuda_shared_1PiS_iiii'
GPGPU-Sim uArch: CTA/core = 16, limited by: cta_limit
Destroy streams for kernel 1: size 0
kernel_name = _Z20needle_cuda_shared_1PiS_iiii 
kernel_launch_uid = 1 
gpu_sim_cycle = 14895
gpu_sim_insn = 6067
gpu_ipc =       0.4073
gpu_tot_sim_cycle = 14895
gpu_tot_sim_insn = 6067
gpu_tot_ipc =       0.4073
gpu_tot_issued_cta = 1
gpu_occupancy = 1.5625% 
gpu_tot_occupancy = 1.5625% 
max_total_param_size = 0
gpu_stall_dramfull = 0
gpu_stall_icnt2sh    = 0
partiton_level_parallism =       0.0099
partiton_level_parallism_total  =       0.0099
partiton_level_parallism_util =       1.0000
partiton_level_parallism_util_total  =       1.0000
L2_BW  =       0.4567 GB/Sec
L2_BW_total  =       0.4567 GB/Sec
gpu_total_sim_rate=3033

========= Core cache stats =========
L1I_cache:
	L1I_total_cache_accesses = 275
	L1I_total_cache_misses = 35
	L1I_total_cache_miss_rate = 0.1273
	L1I_total_cache_pending_hits = 0
	L1I_total_cache_reservation_fails = 0
L1D_cache:
	L1D_cache_core[0]: Access = 0, Miss = 0, Miss_rate = -nan, Pending_hits = 0, Reservation_fails = 0
	L1D_cache_core[1]: Access = 0, Miss = 0, Miss_rate = -nan, Pending_hits = 0, Reservation_fails = 0
	L1D_cache_core[2]: Access = 0, Miss = 0, Miss_rate = -nan, Pending_hits = 0, Reservation_fails = 0
	L1D_cache_core[3]: Access = 0, Miss = 0, Miss_rate = -nan, Pending_hits = 0, Reservation_fails = 0
	L1D_cache_core[4]: Access = 0, Miss = 0, Miss_rate = -nan, Pending_hits = 0, Reservation_fails = 0
	L1D_cache_core[5]: Access = 0, Miss = 0, Miss_rate = -nan, Pending_hits = 0, Reservation_fails = 0
	L1D_cache_core[6]: Access = 0, Miss = 0, Miss_rate = -nan, Pending_hits = 0, Reservation_fails = 0
	L1D_cache_core[7]: Access = 0, Miss = 0, Miss_rate = -nan, Pending_hits = 0, Reservation_fails = 0
	L1D_cache_core[8]: Access = 0, Miss = 0, Miss_rate = -nan, Pending_hits = 0, Reservation_fails = 0
	L1D_cache_core[9]: Access = 0, Miss = 0, Miss_rate = -nan, Pending_hits = 0, Reservation_fails = 0
	L1D_cache_core[10]: Access = 0, Miss = 0, Miss_rate = -nan, Pending_hits = 0, Reservation_fails = 0
	L1D_cache_core[11]: Access = 0, Miss = 0, Miss_rate = -nan, Pending_hits = 0, Reservation_fails = 0
	L1D_cache_core[12]: Access = 0, Miss = 0, Miss_rate = -nan, Pending_hits = 0, Reservation_fails = 0
	L1D_cache_core[13]: Access = 0, Miss = 0, Miss_rate = -nan, Pending_hits = 0, Reservation_fails = 0
	L1D_total_cache_accesses = 0
	L1D_total_cache_misses = 0
	L1D_total_cache_pending_hits = 0
	L1D_total_cache_reservation_fails = 0
	L1D_cache_data_port_util = 0.000
	L1D_cache_fill_port_util = 0.000
L1C_cache:
	L1C_total_cache_accesses = 7
	L1C_total_cache_misses = 5
	L1C_total_cache_miss_rate = 0.7143
	L1C_total_cache_pending_hits = 0
	L1C_total_cache_reservation_fails = 0
L1T_cache:
	L1T_total_cache_accesses = 0
	L1T_total_cache_misses = 0
	L1T_total_cache_pending_hits = 0
	L1T_total_cache_reservation_fails = 0

Total_core_cache_stats:
	Total_core_cache_stats_breakdown[GLOBAL_ACC_R][HIT] = 0
	Total_core_cache_stats_breakdown[GLOBAL_ACC_R][HIT_RESERVED] = 0
	Total_core_cache_stats_breakdown[GLOBAL_ACC_R][MISS] = 0
	Total_core_cache_stats_breakdown[GLOBAL_ACC_R][RESERVATION_FAIL] = 0
	Total_core_cache_stats_breakdown[GLOBAL_ACC_R][SECTOR_MISS] = 0
	Total_core_cache_stats_breakdown[LOCAL_ACC_R][HIT] = 0
	Total_core_cache_stats_breakdown[LOCAL_ACC_R][HIT_RESERVED] = 0
	Total_core_cache_stats_breakdown[LOCAL_ACC_R][MISS] = 0
	Total_core_cache_stats_breakdown[LOCAL_ACC_R][RESERVATION_FAIL] = 0
	Total_core_cache_stats_breakdown[LOCAL_ACC_R][SECTOR_MISS] = 0
	Total_core_cache_stats_breakdown[CONST_ACC_R][HIT] = 2
	Total_core_cache_stats_breakdown[CONST_ACC_R][HIT_RESERVED] = 0
	Total_core_cache_stats_breakdown[CONST_ACC_R][MISS] = 5
	Total_core_cache_stats_breakdown[CONST_ACC_R][RESERVATION_FAIL] = 0
	Total_core_cache_stats_breakdown[CONST_ACC_R][SECTOR_MISS] = 0
	Total_core_cache_stats_breakdown[TEXTURE_ACC_R][HIT] = 0
	Total_core_cache_stats_breakdown[TEXTURE_ACC_R][HIT_RESERVED] = 0
	Total_core_cache_stats_breakdown[TEXTURE_ACC_R][MISS] = 0
	Total_core_cache_stats_breakdown[TEXTURE_ACC_R][RESERVATION_FAIL] = 0
	Total_core_cache_stats_breakdown[TEXTURE_ACC_R][SECTOR_MISS] = 0
	Total_core_cache_stats_breakdown[GLOBAL_ACC_W][HIT] = 0
	Total_core_cache_stats_breakdown[GLOBAL_ACC_W][HIT_RESERVED] = 0
	Total_core_cache_stats_breakdown[GLOBAL_ACC_W][MISS] = 0
	Total_core_cache_stats_breakdown[GLOBAL_ACC_W][RESERVATION_FAIL] = 0
	Total_core_cache_stats_breakdown[GLOBAL_ACC_W][SECTOR_MISS] = 0
	Total_core_cache_stats_breakdown[LOCAL_ACC_W][HIT] = 0
	Total_core_cache_stats_breakdown[LOCAL_ACC_W][HIT_RESERVED] = 0
	Total_core_cache_stats_breakdown[LOCAL_ACC_W][MISS] = 0
	Total_core_cache_stats_breakdown[LOCAL_ACC_W][RESERVATION_FAIL] = 0
	Total_core_cache_stats_breakdown[LOCAL_ACC_W][SECTOR_MISS] = 0
	Total_core_cache_stats_breakdown[L1_WRBK_ACC][HIT] = 0
	Total_core_cache_stats_breakdown[L1_WRBK_ACC][HIT_RESERVED] = 0
	Total_core_cache_stats_breakdown[L1_WRBK_ACC][MISS] = 0
	Total_core_cache_stats_breakdown[L1_WRBK_ACC][RESERVATION_FAIL] = 0
	Total_core_cache_stats_breakdown[L1_WRBK_ACC][SECTOR_MISS] = 0
	Total_core_cache_stats_breakdown[L2_WRBK_ACC][HIT] = 0
	Total_core_cache_stats_breakdown[L2_WRBK_ACC][HIT_RESERVED] = 0
	Total_core_cache_stats_breakdown[L2_WRBK_ACC][MISS] = 0
	Total_core_cache_stats_breakdown[L2_WRBK_ACC][RESERVATION_FAIL] = 0
	Total_core_cache_stats_breakdown[L2_WRBK_ACC][SECTOR_MISS] = 0
	Total_core_cache_stats_breakdown[INST_ACC_R][HIT] = 240
	Total_core_cache_stats_breakdown[INST_ACC_R][HIT_RESERVED] = 0
	Total_core_cache_stats_breakdown[INST_ACC_R][MISS] = 35
	Total_core_cache_stats_breakdown[INST_ACC_R][RESERVATION_FAIL] = 0
	Total_core_cache_stats_breakdown[INST_ACC_R][SECTOR_MISS] = 0
	Total_core_cache_stats_breakdown[L1_WR_ALLOC_R][HIT] = 0
	Total_core_cache_stats_breakdown[L1_WR_ALLOC_R][HIT_RESERVED] = 0
	Total_core_cache_stats_breakdown[L1_WR_ALLOC_R][MISS] = 0
	Total_core_cache_stats_breakdown[L1_WR_ALLOC_R][RESERVATION_FAIL] = 0
	Total_core_cache_stats_breakdown[L1_WR_ALLOC_R][SECTOR_MISS] = 0
	Total_core_cache_stats_breakdown[L2_WR_ALLOC_R][HIT] = 0
	Total_core_cache_stats_breakdown[L2_WR_ALLOC_R][HIT_RESERVED] = 0
	Total_core_cache_stats_breakdown[L2_WR_ALLOC_R][MISS] = 0
	Total_core_cache_stats_breakdown[L2_WR_ALLOC_R][RESERVATION_FAIL] = 0
	Total_core_cache_stats_breakdown[L2_WR_ALLOC_R][SECTOR_MISS] = 0
	Total_core_cache_stats_breakdown[CONST_ACC_R][TOTAL_ACCESS] = 7
	Total_core_cache_stats_breakdown[INST_ACC_R][TOTAL_ACCESS] = 275

Total_core_cache_fail_stats:
ctas_completed 1, Shader 0 warp_id issue ditsribution:
warp_id:
0, 
distro:
676, 
gpgpu_n_tot_thrd_icount = 17568
gpgpu_n_tot_w_icount = 549
gpgpu_n_stall_shd_mem = 497
gpgpu_n_mem_read_local = 0
gpgpu_n_mem_write_local = 0
gpgpu_n_mem_read_global = 66
gpgpu_n_mem_write_global = 46
gpgpu_n_mem_texture = 0
gpgpu_n_mem_const = 1
gpgpu_n_load_insn  = 289
gpgpu_n_store_insn = 256
gpgpu_n_shmem_insn = 1825
gpgpu_n_sstarr_insn = 0
gpgpu_n_tex_insn = 0
gpgpu_n_const_mem_insn = 0
gpgpu_n_param_mem_insn = 112
gpgpu_n_shmem_bkconflict = 0
gpgpu_n_cache_bkconflict = 0
gpgpu_n_intrawarp_mshr_merge = 0
gpgpu_n_cmem_portconflict = 0
gpgpu_stall_shd_mem[c_mem][resource_stall] = 0
gpgpu_stall_shd_mem[s_mem][bk_conf] = 420
gpgpu_stall_shd_mem[gl_mem][resource_stall] = 0
gpgpu_stall_shd_mem[gl_mem][coal_stall] = 77
gpgpu_stall_shd_mem[gl_mem][data_port_stall] = 0
gpu_reg_bank_conflict_stalls = 0
Warp Occupancy Distribution:
Stall:0	W0_Idle:53989	W0_Scoreboard:5165	W1:24	W2:20	W3:20	W4:20	W5:20	W6:20	W7:20	W8:20	W9:20	W10:20	W11:20	W12:20	W13:20	W14:20	W15:20	W16:245	W17:0	W18:0	W19:0	W20:0	W21:0	W22:0	W23:0	W24:0	W25:0	W26:0	W27:0	W28:0	W29:0	W30:0	W31:0	W32:0
single_issue_nums: WS0:295	WS1:0	WS2:0	WS3:0	
dual_issue_nums: WS0:127	WS1:0	WS2:0	WS3:0	
traffic_breakdown_coretomem[CONST_ACC_R] = 8 {8:1,}
traffic_breakdown_coretomem[GLOBAL_ACC_R] = 528 {8:66,}
traffic_breakdown_coretomem[GLOBAL_ACC_W] = 1840 {40:46,}
traffic_breakdown_coretomem[INST_ACC_R] = 280 {8:35,}
traffic_breakdown_memtocore[CONST_ACC_R] = 80 {40:2,}
traffic_breakdown_memtocore[GLOBAL_ACC_R] = 2640 {40:66,}
traffic_breakdown_memtocore[GLOBAL_ACC_W] = 368 {8:46,}
traffic_breakdown_memtocore[INST_ACC_R] = 5600 {40:140,}
maxmflatency = 262 
max_icnt2mem_latency = 8 
maxmrqlatency = 20 
max_icnt2sh_latency = 7 
averagemflatency = 138 
avg_icnt2mem_latency = 11 
avg_mrq_latency = 5 
avg_icnt2sh_latency = 8 
mrq_lat_table:56 	10 	0 	72 	4 	0 	0 	0 	0 	0 	0 	0 	0 	0 	0 	0 	0 	0 	0 	0 	0 	0 	0 	0 	0 	0 	0 	0 	0 	0 	0 	0 	
dq_lat_table:0 	0 	0 	0 	0 	0 	0 	0 	0 	0 	0 	0 	0 	0 	0 	0 	0 	0 	0 	0 	0 	0 	0 	0 	0 	0 	0 	0 	0 	0 	0 	0 	
mf_lat_table:0 	0 	0 	0 	0 	0 	0 	112 	2 	0 	0 	0 	0 	0 	0 	0 	0 	0 	0 	0 	0 	0 	0 	0 	0 	0 	0 	0 	0 	0 	0 	0 	
icnt2mem_lat_table:0 	0 	147 	1 	0 	0 	0 	0 	0 	0 	0 	0 	0 	0 	0 	0 	0 	0 	0 	0 	0 	0 	0 	0 	
icnt2sh_lat_table:0 	0 	114 	0 	0 	0 	0 	0 	0 	0 	0 	0 	0 	0 	0 	0 	0 	0 	0 	0 	0 	0 	0 	0 	
mf_lat_pw_table:0 	0 	0 	0 	0 	0 	0 	10 	1 	0 	0 	0 	0 	0 	0 	0 	0 	0 	0 	0 	0 	0 	0 	0 	0 	0 	0 	0 	0 	0 	0 	0 	
maximum concurrent accesses to same row:
dram[0]:         4         0         0         0         0         0         0         0         0         0         0         0         0         0         0         0 
dram[1]:         0         0         0         0         0         0         0         0         0         0         0         0         0         0         0         0 
dram[2]:         0         0         0         0         0         0         0         0         0         0         0         0         0         0         0         0 
dram[3]:         0         0         0         0         0         0         0         0         0         0         0         0         0         0         0         0 
dram[4]:         0         0         0         0         0         0         0         0         0         0         0         0         0         0         0         0 
dram[5]:         0         0         0         0         0         0         0         0         0         0         0         0         0         0         0         0 
dram[6]:         0         0         0         0         0         0         0         0         0         0         0         0         0         0         0         0 
dram[7]:         0         0         0         0         0         0         0         0         0         0         0         0         0         0         0         0 
dram[8]:         0         0         0         0         0         0         0         0         0         0         0         0         0         0         0         0 
dram[9]:         0         0         0         0         0         0         0         0         0         0         0         0         0         0         0         0 
dram[10]:         0         0         0         0         0         0         0         0         0         0         0         0         0         0         0         0 
dram[11]:         0         0         0         0         0         0         0         0         0         0         0         0         0         0         0         0 
maximum service time to same row:
dram[0]:     10886       820         0         0         0         0         0         0         0         0         0         0         0         0         0         0 
dram[1]:      1420      2447         0         0         0         0         0         0         0         0         0         0         0         0         0         0 
dram[2]:      3474      4352         0         0         0         0         0         0         0         0         0         0         0         0         0         0 
dram[3]:      4980      5302         0         0         0         0         0         0         0         0         0         0         0         0         0         0 
dram[4]:      5643      5997         0         0         0         0         0         0         0         0         0         0         0         0         0         0 
dram[5]:      6338      6688         0         0         0         0         0         0         0         0         0         0         0         0         0         0 
dram[6]:      7038      7414         0         0         0         0         0         0         0         0         0         0         0         0         0         0 
dram[7]:      7765      8120         0         0         0         0         0         0         0         0         0         0         0         0         0         0 
dram[8]:      8480      8849         0         0         0         0         0         0         0         0         0         0         0         0         0         0 
dram[9]:      9199      9555         0         0         0         0         0         0         0         0         0         0         0         0         0         0 
dram[10]:      9921     10306         0         0         0         0         0         0         0         0         0         0         0         0         0         0 
dram[11]:     10651     11007         0         0         0         0         0         0         0         0         0         0         0         0         0         0 
average row accesses per activate:
dram[0]:  3.333333  8.000000      -nan      -nan      -nan      -nan      -nan      -nan      -nan      -nan      -nan      -nan      -nan      -nan      -nan      -nan 
dram[1]:  8.000000  8.000000      -nan      -nan      -nan      -nan      -nan      -nan      -nan      -nan      -nan      -nan      -nan      -nan      -nan      -nan 
dram[2]:  8.000000  8.000000      -nan      -nan      -nan      -nan      -nan      -nan      -nan      -nan      -nan      -nan      -nan      -nan      -nan      -nan 
dram[3]:  8.000000  8.000000      -nan      -nan      -nan      -nan      -nan      -nan      -nan      -nan      -nan      -nan      -nan      -nan      -nan      -nan 
dram[4]:  8.000000  8.000000      -nan      -nan      -nan      -nan      -nan      -nan      -nan      -nan      -nan      -nan      -nan      -nan      -nan      -nan 
dram[5]:  8.000000  4.000000      -nan      -nan      -nan      -nan      -nan      -nan      -nan      -nan      -nan      -nan      -nan      -nan      -nan      -nan 
dram[6]:  4.000000  4.000000      -nan      -nan      -nan      -nan      -nan      -nan      -nan      -nan      -nan      -nan      -nan      -nan      -nan      -nan 
dram[7]:  4.000000  4.000000      -nan      -nan      -nan      -nan      -nan      -nan      -nan      -nan      -nan      -nan      -nan      -nan      -nan      -nan 
dram[8]:  4.000000  4.000000      -nan      -nan      -nan      -nan      -nan      -nan      -nan      -nan      -nan      -nan      -nan      -nan      -nan      -nan 
dram[9]:  4.000000  4.000000      -nan      -nan      -nan      -nan      -nan      -nan      -nan      -nan      -nan      -nan      -nan      -nan      -nan      -nan 
dram[10]:  4.000000  4.000000      -nan      -nan      -nan      -nan      -nan      -nan      -nan      -nan      -nan      -nan      -nan      -nan      -nan      -nan 
dram[11]:  4.000000  4.000000      -nan      -nan      -nan      -nan      -nan      -nan      -nan      -nan      -nan      -nan      -nan      -nan      -nan      -nan 
average row locality = 142/26 = 5.461538
number of total memory accesses made:
dram[0]:         0         0         0         0         0         0         0         0         0         0         0         0         0         0         0         0 
dram[1]:         0         0         0         0         0         0         0         0         0         0         0         0         0         0         0         0 
dram[2]:         0         0         0         0         0         0         0         0         0         0         0         0         0         0         0         0 
dram[3]:         0         0         0         0         0         0         0         0         0         0         0         0         0         0         0         0 
dram[4]:         0         0         0         0         0         0         0         0         0         0         0         0         0         0         0         0 
dram[5]:         0         0         0         0         0         0         0         0         0         0         0         0         0         0         0         0 
dram[6]:         0         0         0         0         0         0         0         0         0         0         0         0         0         0         0         0 
dram[7]:         0         0         0         0         0         0         0         0         0         0         0         0         0         0         0         0 
dram[8]:         0         0         0         0         0         0         0         0         0         0         0         0         0         0         0         0 
dram[9]:         0         0         0         0         0         0         0         0         0         0         0         0         0         0         0         0 
dram[10]:         0         0         0         0         0         0         0         0         0         0         0         0         0         0         0         0 
dram[11]:         0         0         0         0         0         0         0         0         0         0         0         0         0         0         0         0 
total accesses: 0
min_bank_accesses = 0!
min_chip_accesses = 0!
number of total read accesses:
dram[0]:        10         8         0         0         0         0         0         0         0         0         0         0         0         0         0         0 
dram[1]:         8         8         0         0         0         0         0         0         0         0         0         0         0         0         0         0 
dram[2]:         8         8         0         0         0         0         0         0         0         0         0         0         0         0         0         0 
dram[3]:         8         8         0         0         0         0         0         0         0         0         0         0         0         0         0         0 
dram[4]:         8         8         0         0         0         0         0         0         0         0         0         0         0         0         0         0 
dram[5]:         8         4         0         0         0         0         0         0         0         0         0         0         0         0         0         0 
dram[6]:         4         4         0         0         0         0         0         0         0         0         0         0         0         0         0         0 
dram[7]:         4         4         0         0         0         0         0         0         0         0         0         0         0         0         0         0 
dram[8]:         4         4         0         0         0         0         0         0         0         0         0         0         0         0         0         0 
dram[9]:         4         4         0         0         0         0         0         0         0         0         0         0         0         0         0         0 
dram[10]:         4         4         0         0         0         0         0         0         0         0         0         0         0         0         0         0 
dram[11]:         4         4         0         0         0         0         0         0         0         0         0         0         0         0         0         0 
total dram reads = 142
min_bank_accesses = 0!
chip skew: 18/8 = 2.25
number of total write accesses:
dram[0]:         0         0         0         0         0         0         0         0         0         0         0         0         0         0         0         0 
dram[1]:         0         0         0         0         0         0         0         0         0         0         0         0         0         0         0         0 
dram[2]:         0         0         0         0         0         0         0         0         0         0         0         0         0         0         0         0 
dram[3]:         0         0         0         0         0         0         0         0         0         0         0         0         0         0         0         0 
dram[4]:         0         0         0         0         0         0         0         0         0         0         0         0         0         0         0         0 
dram[5]:         0         0         0         0         0         0         0         0         0         0         0         0         0         0         0         0 
dram[6]:         0         0         0         0         0         0         0         0         0         0         0         0         0         0         0         0 
dram[7]:         0         0         0         0         0         0         0         0         0         0         0         0         0         0         0         0 
dram[8]:         0         0         0         0         0         0         0         0         0         0         0         0         0         0         0         0 
dram[9]:         0         0         0         0         0         0         0         0         0         0         0         0         0         0         0         0 
dram[10]:         0         0         0         0         0         0         0         0         0         0         0         0         0         0         0         0 
dram[11]:         0         0         0         0         0         0         0         0         0         0         0         0         0         0         0         0 
total dram writes = 0
min_bank_accesses = 0!
min_chip_accesses = 0!
average mf latency per bank:
dram[0]:        242         0    none      none      none      none      none      none      none      none      none      none      none      none      none      none  
dram[1]:          0         0    none      none      none      none      none      none      none      none      none      none      none      none      none      none  
dram[2]:          0         0    none      none      none      none      none      none      none      none      none      none      none      none      none      none  
dram[3]:          0         0    none      none      none      none      none      none      none      none      none      none      none      none      none      none  
dram[4]:        272        17    none      none      none      none      none      none      none      none      none      none      none      none      none      none  
dram[5]:          0         0    none      none      none      none      none      none      none      none      none      none      none      none      none      none  
dram[6]:          0         0    none      none      none      none      none      none      none      none      none      none      none      none      none      none  
dram[7]:          0         0    none      none      none      none      none      none      none      none      none      none      none      none      none      none  
dram[8]:        510         0    none      none      none      none      none      none      none      none      none      none      none      none      none      none  
dram[9]:          0         0    none      none      none      none      none      none      none      none      none      none      none      none      none      none  
dram[10]:          0         0    none      none      none      none      none      none      none      none      none      none      none      none      none      none  
dram[11]:          0         0    none      none      none      none      none      none      none      none      none      none      none      none      none      none  
maximum mf latency per bank:
dram[0]:        262         0         0         0         0         0         0         0         0         0         0         0         0         0         0         0
dram[1]:          0         0         0         0         0         0         0         0         0         0       136         0         0         0         0         0
dram[2]:          0         0         0         0         0         0         0         0         0         0         0         0         0         0         0         0
dram[3]:          0         0         0         0         0         0         0         0         0         0         0         0         0         0         0         0
dram[4]:        136       136         0         0         0         0         0         0         0         0         0         0         0         0         0         0
dram[5]:          0         0         0         0         0         0         0         0         0         0       136       136         0         0         0         0
dram[6]:          0         0         0         0         0         0         0         0         0         0         0         0         0         0         0         0
dram[7]:          0         0         0         0         0         0         0         0         0         0         0         0         0         0         0         0
dram[8]:        136         0         0         0         0         0         0         0         0         0         0         0         0         0         0         0
dram[9]:          0         0         0         0         0         0         0         0         0         0       136         0         0         0         0         0
dram[10]:          0         0         0         0         0         0         0         0         0         0         0         0         0         0         0         0
dram[11]:          0         0         0         0         0         0         0         0         0         0         0         0         0         0         0         0
Memory Partition 0: 
Cache L2_bank_000:
MSHR contents

Cache L2_bank_001:
MSHR contents

In Dram Latency Queue (total = 0): 
DRAM[0]: 16 bks, busW=4 BL=8 CL=16, tRRD=8 tCCD=2, tRCD=16 tRAS=37 tRP=16 tRC=52
n_cmd=26728 n_nop=26704 n_act=4 n_pre=2 n_ref_event=94608449956512 n_req=18 n_rd=18 n_rd_L2_A=0 n_write=0 n_wr_bk=0 bw_util=0.001347
n_activity=266 dram_eff=0.1353
bk0: 10a 26627i bk1: 8a 26692i bk2: 0a 26725i bk3: 0a 26726i bk4: 0a 26726i bk5: 0a 26727i bk6: 0a 26728i bk7: 0a 26728i bk8: 0a 26728i bk9: 0a 26728i bk10: 0a 26728i bk11: 0a 26728i bk12: 0a 26729i bk13: 0a 26730i bk14: 0a 26730i bk15: 0a 26730i 

------------------------------------------------------------------------

Row_Buffer_Locality = 0.777778
Row_Buffer_Locality_read = 0.777778
Row_Buffer_Locality_write = -nan
Bank_Level_Parallism = 1.000000
Bank_Level_Parallism_Col = 0.675962
Bank_Level_Parallism_Ready = 1.000000
write_to_read_ratio_blp_rw_average = 0.000000
GrpLevelPara = 0.000000 

BW Util details:
bwutil = 0.001347 
total_CMD = 26728 
util_bw = 36 
Wasted_Col = 90 
Wasted_Row = 32 
Idle = 26570 

BW Util Bottlenecks: 
RCDc_limit = 64 
RCDWRc_limit = 0 
WTRc_limit = 0 
RTWc_limit = 0 
CCDLc_limit = 26 
rwq = 0 
CCDLc_limit_alone = 26 
WTRc_limit_alone = 0 
RTWc_limit_alone = 0 

Commands details: 
total_CMD = 26728 
n_nop = 26704 
Read = 18 
Write = 0 
L2_Alloc = 0 
L2_WB = 0 
n_act = 4 
n_pre = 2 
n_ref = 94608449956512 
n_req = 18 
total_req = 18 

Dual Bus Interface Util: 
issued_total_row = 6 
issued_total_col = 18 
Row_Bus_Util =  0.000224 
CoL_Bus_Util = 0.000673 
Either_Row_CoL_Bus_Util = 0.000898 
Issued_on_Two_Bus_Simul_Util = 0.000000 
issued_two_Eff = 0.000000 
queue_avg = 0.008905 


dram_util_bins: 0 0 0 0 0 0 0 0 0 0
dram_eff_bins: 0 0 0 0 0 0 0 0 0 0
mrqq: max=3 avg=0.00890452
Memory Partition 1: 
Cache L2_bank_002:
MSHR contents

Cache L2_bank_003:
MSHR contents

In Dram Latency Queue (total = 0): 
DRAM[1]: 16 bks, busW=4 BL=8 CL=16, tRRD=8 tCCD=2, tRCD=16 tRAS=37 tRP=16 tRC=52
n_cmd=26728 n_nop=26710 n_act=2 n_pre=0 n_ref_event=94608450816144 n_req=16 n_rd=16 n_rd_L2_A=0 n_write=0 n_wr_bk=0 bw_util=0.001197
n_activity=156 dram_eff=0.2051
bk0: 8a 26696i bk1: 8a 26695i bk2: 0a 26727i bk3: 0a 26727i bk4: 0a 26727i bk5: 0a 26728i bk6: 0a 26728i bk7: 0a 26728i bk8: 0a 26728i bk9: 0a 26728i bk10: 0a 26728i bk11: 0a 26728i bk12: 0a 26728i bk13: 0a 26728i bk14: 0a 26728i bk15: 0a 26729i 

------------------------------------------------------------------------

Row_Buffer_Locality = 0.875000
Row_Buffer_Locality_read = 0.875000
Row_Buffer_Locality_write = -nan
Bank_Level_Parallism = 1.000000
Bank_Level_Parallism_Col = 1.000000
Bank_Level_Parallism_Ready = 1.000000
write_to_read_ratio_blp_rw_average = 0.000000
GrpLevelPara = 1.000000 

BW Util details:
bwutil = 0.001197 
total_CMD = 26728 
util_bw = 32 
Wasted_Col = 56 
Wasted_Row = 0 
Idle = 26640 

BW Util Bottlenecks: 
RCDc_limit = 32 
RCDWRc_limit = 0 
WTRc_limit = 0 
RTWc_limit = 0 
CCDLc_limit = 24 
rwq = 0 
CCDLc_limit_alone = 24 
WTRc_limit_alone = 0 
RTWc_limit_alone = 0 

Commands details: 
total_CMD = 26728 
n_nop = 26710 
Read = 16 
Write = 0 
L2_Alloc = 0 
L2_WB = 0 
n_act = 2 
n_pre = 0 
n_ref = 94608450816144 
n_req = 16 
total_req = 16 

Dual Bus Interface Util: 
issued_total_row = 2 
issued_total_col = 16 
Row_Bus_Util =  0.000075 
CoL_Bus_Util = 0.000599 
Either_Row_CoL_Bus_Util = 0.000673 
Issued_on_Two_Bus_Simul_Util = 0.000000 
issued_two_Eff = 0.000000 
queue_avg = 0.004265 


dram_util_bins: 0 0 0 0 0 0 0 0 0 0
dram_eff_bins: 0 0 0 0 0 0 0 0 0 0
mrqq: max=3 avg=0.00426519
Memory Partition 2: 
Cache L2_bank_004:
MSHR contents

Cache L2_bank_005:
MSHR contents

In Dram Latency Queue (total = 0): 
DRAM[2]: 16 bks, busW=4 BL=8 CL=16, tRRD=8 tCCD=2, tRCD=16 tRAS=37 tRP=16 tRC=52
n_cmd=26728 n_nop=26710 n_act=2 n_pre=0 n_ref_event=0 n_req=16 n_rd=16 n_rd_L2_A=0 n_write=0 n_wr_bk=0 bw_util=0.001197
n_activity=156 dram_eff=0.2051
bk0: 8a 26695i bk1: 8a 26695i bk2: 0a 26727i bk3: 0a 26727i bk4: 0a 26727i bk5: 0a 26728i bk6: 0a 26728i bk7: 0a 26728i bk8: 0a 26728i bk9: 0a 26728i bk10: 0a 26728i bk11: 0a 26728i bk12: 0a 26728i bk13: 0a 26728i bk14: 0a 26728i bk15: 0a 26729i 

------------------------------------------------------------------------

Row_Buffer_Locality = 0.875000
Row_Buffer_Locality_read = 0.875000
Row_Buffer_Locality_write = -nan
Bank_Level_Parallism = 1.000000
Bank_Level_Parallism_Col = 1.000000
Bank_Level_Parallism_Ready = 1.000000
write_to_read_ratio_blp_rw_average = 0.000000
GrpLevelPara = 1.000000 

BW Util details:
bwutil = 0.001197 
total_CMD = 26728 
util_bw = 32 
Wasted_Col = 56 
Wasted_Row = 0 
Idle = 26640 

BW Util Bottlenecks: 
RCDc_limit = 32 
RCDWRc_limit = 0 
WTRc_limit = 0 
RTWc_limit = 0 
CCDLc_limit = 24 
rwq = 0 
CCDLc_limit_alone = 24 
WTRc_limit_alone = 0 
RTWc_limit_alone = 0 

Commands details: 
total_CMD = 26728 
n_nop = 26710 
Read = 16 
Write = 0 
L2_Alloc = 0 
L2_WB = 0 
n_act = 2 
n_pre = 0 
n_ref = 0 
n_req = 16 
total_req = 16 

Dual Bus Interface Util: 
issued_total_row = 2 
issued_total_col = 16 
Row_Bus_Util =  0.000075 
CoL_Bus_Util = 0.000599 
Either_Row_CoL_Bus_Util = 0.000673 
Issued_on_Two_Bus_Simul_Util = 0.000000 
issued_two_Eff = 0.000000 
queue_avg = 0.004303 


dram_util_bins: 0 0 0 0 0 0 0 0 0 0
dram_eff_bins: 0 0 0 0 0 0 0 0 0 0
mrqq: max=3 avg=0.0043026
Memory Partition 3: 
Cache L2_bank_006:
MSHR contents

Cache L2_bank_007:
MSHR contents

In Dram Latency Queue (total = 0): 
DRAM[3]: 16 bks, busW=4 BL=8 CL=16, tRRD=8 tCCD=2, tRCD=16 tRAS=37 tRP=16 tRC=52
n_cmd=26728 n_nop=26710 n_act=2 n_pre=0 n_ref_event=0 n_req=16 n_rd=16 n_rd_L2_A=0 n_write=0 n_wr_bk=0 bw_util=0.001197
n_activity=156 dram_eff=0.2051
bk0: 8a 26696i bk1: 8a 26695i bk2: 0a 26727i bk3: 0a 26727i bk4: 0a 26727i bk5: 0a 26728i bk6: 0a 26728i bk7: 0a 26728i bk8: 0a 26728i bk9: 0a 26728i bk10: 0a 26728i bk11: 0a 26728i bk12: 0a 26728i bk13: 0a 26728i bk14: 0a 26728i bk15: 0a 26729i 

------------------------------------------------------------------------

Row_Buffer_Locality = 0.875000
Row_Buffer_Locality_read = 0.875000
Row_Buffer_Locality_write = -nan
Bank_Level_Parallism = 1.000000
Bank_Level_Parallism_Col = 1.000000
Bank_Level_Parallism_Ready = 1.000000
write_to_read_ratio_blp_rw_average = 0.000000
GrpLevelPara = 1.000000 

BW Util details:
bwutil = 0.001197 
total_CMD = 26728 
util_bw = 32 
Wasted_Col = 56 
Wasted_Row = 0 
Idle = 26640 

BW Util Bottlenecks: 
RCDc_limit = 32 
RCDWRc_limit = 0 
WTRc_limit = 0 
RTWc_limit = 0 
CCDLc_limit = 24 
rwq = 0 
CCDLc_limit_alone = 24 
WTRc_limit_alone = 0 
RTWc_limit_alone = 0 

Commands details: 
total_CMD = 26728 
n_nop = 26710 
Read = 16 
Write = 0 
L2_Alloc = 0 
L2_WB = 0 
n_act = 2 
n_pre = 0 
n_ref = 0 
n_req = 16 
total_req = 16 

Dual Bus Interface Util: 
issued_total_row = 2 
issued_total_col = 16 
Row_Bus_Util =  0.000075 
CoL_Bus_Util = 0.000599 
Either_Row_CoL_Bus_Util = 0.000673 
Issued_on_Two_Bus_Simul_Util = 0.000000 
issued_two_Eff = 0.000000 
queue_avg = 0.004153 


dram_util_bins: 0 0 0 0 0 0 0 0 0 0
dram_eff_bins: 0 0 0 0 0 0 0 0 0 0
mrqq: max=3 avg=0.00415295
Memory Partition 4: 
Cache L2_bank_008:
MSHR contents

Cache L2_bank_009:
MSHR contents

In Dram Latency Queue (total = 0): 
DRAM[4]: 16 bks, busW=4 BL=8 CL=16, tRRD=8 tCCD=2, tRCD=16 tRAS=37 tRP=16 tRC=52
n_cmd=26728 n_nop=26710 n_act=2 n_pre=0 n_ref_event=0 n_req=16 n_rd=16 n_rd_L2_A=0 n_write=0 n_wr_bk=0 bw_util=0.001197
n_activity=156 dram_eff=0.2051
bk0: 8a 26695i bk1: 8a 26695i bk2: 0a 26727i bk3: 0a 26727i bk4: 0a 26727i bk5: 0a 26728i bk6: 0a 26728i bk7: 0a 26728i bk8: 0a 26728i bk9: 0a 26728i bk10: 0a 26728i bk11: 0a 26728i bk12: 0a 26728i bk13: 0a 26728i bk14: 0a 26728i bk15: 0a 26729i 

------------------------------------------------------------------------

Row_Buffer_Locality = 0.875000
Row_Buffer_Locality_read = 0.875000
Row_Buffer_Locality_write = -nan
Bank_Level_Parallism = 1.000000
Bank_Level_Parallism_Col = 1.000000
Bank_Level_Parallism_Ready = 1.000000
write_to_read_ratio_blp_rw_average = 0.000000
GrpLevelPara = 1.000000 

BW Util details:
bwutil = 0.001197 
total_CMD = 26728 
util_bw = 32 
Wasted_Col = 56 
Wasted_Row = 0 
Idle = 26640 

BW Util Bottlenecks: 
RCDc_limit = 32 
RCDWRc_limit = 0 
WTRc_limit = 0 
RTWc_limit = 0 
CCDLc_limit = 24 
rwq = 0 
CCDLc_limit_alone = 24 
WTRc_limit_alone = 0 
RTWc_limit_alone = 0 

Commands details: 
total_CMD = 26728 
n_nop = 26710 
Read = 16 
Write = 0 
L2_Alloc = 0 
L2_WB = 0 
n_act = 2 
n_pre = 0 
n_ref = 0 
n_req = 16 
total_req = 16 

Dual Bus Interface Util: 
issued_total_row = 2 
issued_total_col = 16 
Row_Bus_Util =  0.000075 
CoL_Bus_Util = 0.000599 
Either_Row_CoL_Bus_Util = 0.000673 
Issued_on_Two_Bus_Simul_Util = 0.000000 
issued_two_Eff = 0.000000 
queue_avg = 0.004228 


dram_util_bins: 0 0 0 0 0 0 0 0 0 0
dram_eff_bins: 0 0 0 0 0 0 0 0 0 0
mrqq: max=3 avg=0.00422778
Memory Partition 5: 
Cache L2_bank_010:
MSHR contents

Cache L2_bank_011:
MSHR contents

In Dram Latency Queue (total = 0): 
DRAM[5]: 16 bks, busW=4 BL=8 CL=16, tRRD=8 tCCD=2, tRCD=16 tRAS=37 tRP=16 tRC=52
n_cmd=26728 n_nop=26714 n_act=2 n_pre=0 n_ref_event=0 n_req=12 n_rd=12 n_rd_L2_A=0 n_write=0 n_wr_bk=0 bw_util=0.0008979
n_activity=130 dram_eff=0.1846
bk0: 8a 26696i bk1: 4a 26703i bk2: 0a 26727i bk3: 0a 26727i bk4: 0a 26727i bk5: 0a 26728i bk6: 0a 26728i bk7: 0a 26728i bk8: 0a 26728i bk9: 0a 26728i bk10: 0a 26728i bk11: 0a 26728i bk12: 0a 26728i bk13: 0a 26728i bk14: 0a 26728i bk15: 0a 26729i 

------------------------------------------------------------------------

Row_Buffer_Locality = 0.833333
Row_Buffer_Locality_read = 0.833333
Row_Buffer_Locality_write = -nan
Bank_Level_Parallism = 1.000000
Bank_Level_Parallism_Col = 1.004582
Bank_Level_Parallism_Ready = 1.000000
write_to_read_ratio_blp_rw_average = 0.000000
GrpLevelPara = 0.000000 

BW Util details:
bwutil = 0.000898 
total_CMD = 26728 
util_bw = 24 
Wasted_Col = 50 
Wasted_Row = 0 
Idle = 26654 

BW Util Bottlenecks: 
RCDc_limit = 32 
RCDWRc_limit = 0 
WTRc_limit = 0 
RTWc_limit = 0 
CCDLc_limit = 18 
rwq = 0 
CCDLc_limit_alone = 18 
WTRc_limit_alone = 0 
RTWc_limit_alone = 0 

Commands details: 
total_CMD = 26728 
n_nop = 26714 
Read = 12 
Write = 0 
L2_Alloc = 0 
L2_WB = 0 
n_act = 2 
n_pre = 0 
n_ref = 0 
n_req = 12 
total_req = 12 

Dual Bus Interface Util: 
issued_total_row = 2 
issued_total_col = 12 
Row_Bus_Util =  0.000075 
CoL_Bus_Util = 0.000449 
Either_Row_CoL_Bus_Util = 0.000524 
Issued_on_Two_Bus_Simul_Util = 0.000000 
issued_two_Eff = 0.000000 
queue_avg = 0.004153 


dram_util_bins: 0 0 0 0 0 0 0 0 0 0
dram_eff_bins: 0 0 0 0 0 0 0 0 0 0
mrqq: max=3 avg=0.00415295
Memory Partition 6: 
Cache L2_bank_012:
MSHR contents

Cache L2_bank_013:
MSHR contents

In Dram Latency Queue (total = 0): 
DRAM[6]: 16 bks, busW=4 BL=8 CL=16, tRRD=8 tCCD=2, tRCD=16 tRAS=37 tRP=16 tRC=52
n_cmd=26728 n_nop=26718 n_act=2 n_pre=0 n_ref_event=4568229571824690154 n_req=8 n_rd=8 n_rd_L2_A=0 n_write=0 n_wr_bk=0 bw_util=0.0005986
n_activity=104 dram_eff=0.1538
bk0: 4a 26704i bk1: 4a 26703i bk2: 0a 26727i bk3: 0a 26727i bk4: 0a 26727i bk5: 0a 26728i bk6: 0a 26728i bk7: 0a 26728i bk8: 0a 26728i bk9: 0a 26728i bk10: 0a 26728i bk11: 0a 26728i bk12: 0a 26728i bk13: 0a 26728i bk14: 0a 26728i bk15: 0a 26729i 

------------------------------------------------------------------------

Row_Buffer_Locality = 0.750000
Row_Buffer_Locality_read = 0.750000
Row_Buffer_Locality_write = -nan
Bank_Level_Parallism = 1.000000
Bank_Level_Parallism_Col = 1.000000
Bank_Level_Parallism_Ready = 1.000000
write_to_read_ratio_blp_rw_average = 0.000000
GrpLevelPara = 1.000000 

BW Util details:
bwutil = 0.000599 
total_CMD = 26728 
util_bw = 16 
Wasted_Col = 44 
Wasted_Row = 0 
Idle = 26668 

BW Util Bottlenecks: 
RCDc_limit = 32 
RCDWRc_limit = 0 
WTRc_limit = 0 
RTWc_limit = 0 
CCDLc_limit = 12 
rwq = 0 
CCDLc_limit_alone = 12 
WTRc_limit_alone = 0 
RTWc_limit_alone = 0 

Commands details: 
total_CMD = 26728 
n_nop = 26718 
Read = 8 
Write = 0 
L2_Alloc = 0 
L2_WB = 0 
n_act = 2 
n_pre = 0 
n_ref = 4568229571824690154 
n_req = 8 
total_req = 8 

Dual Bus Interface Util: 
issued_total_row = 2 
issued_total_col = 8 
Row_Bus_Util =  0.000075 
CoL_Bus_Util = 0.000299 
Either_Row_CoL_Bus_Util = 0.000374 
Issued_on_Two_Bus_Simul_Util = 0.000000 
issued_two_Eff = 0.000000 
queue_avg = 0.003816 


dram_util_bins: 0 0 0 0 0 0 0 0 0 0
dram_eff_bins: 0 0 0 0 0 0 0 0 0 0
mrqq: max=3 avg=0.00381622
Memory Partition 7: 
Cache L2_bank_014:
MSHR contents

Cache L2_bank_015:
MSHR contents

In Dram Latency Queue (total = 0): 
DRAM[7]: 16 bks, busW=4 BL=8 CL=16, tRRD=8 tCCD=2, tRCD=16 tRAS=37 tRP=16 tRC=52
n_cmd=26728 n_nop=26718 n_act=2 n_pre=0 n_ref_event=0 n_req=8 n_rd=8 n_rd_L2_A=0 n_write=0 n_wr_bk=0 bw_util=0.0005986
n_activity=104 dram_eff=0.1538
bk0: 4a 26704i bk1: 4a 26703i bk2: 0a 26727i bk3: 0a 26727i bk4: 0a 26727i bk5: 0a 26728i bk6: 0a 26728i bk7: 0a 26728i bk8: 0a 26728i bk9: 0a 26728i bk10: 0a 26728i bk11: 0a 26728i bk12: 0a 26728i bk13: 0a 26728i bk14: 0a 26728i bk15: 0a 26729i 

------------------------------------------------------------------------

Row_Buffer_Locality = 0.750000
Row_Buffer_Locality_read = 0.750000
Row_Buffer_Locality_write = -nan
Bank_Level_Parallism = 1.000000
Bank_Level_Parallism_Col = 1.000000
Bank_Level_Parallism_Ready = 1.000000
write_to_read_ratio_blp_rw_average = 0.000000
GrpLevelPara = 1.000000 

BW Util details:
bwutil = 0.000599 
total_CMD = 26728 
util_bw = 16 
Wasted_Col = 44 
Wasted_Row = 0 
Idle = 26668 

BW Util Bottlenecks: 
RCDc_limit = 32 
RCDWRc_limit = 0 
WTRc_limit = 0 
RTWc_limit = 0 
CCDLc_limit = 12 
rwq = 0 
CCDLc_limit_alone = 12 
WTRc_limit_alone = 0 
RTWc_limit_alone = 0 

Commands details: 
total_CMD = 26728 
n_nop = 26718 
Read = 8 
Write = 0 
L2_Alloc = 0 
L2_WB = 0 
n_act = 2 
n_pre = 0 
n_ref = 0 
n_req = 8 
total_req = 8 

Dual Bus Interface Util: 
issued_total_row = 2 
issued_total_col = 8 
Row_Bus_Util =  0.000075 
CoL_Bus_Util = 0.000299 
Either_Row_CoL_Bus_Util = 0.000374 
Issued_on_Two_Bus_Simul_Util = 0.000000 
issued_two_Eff = 0.000000 
queue_avg = 0.003891 


dram_util_bins: 0 0 0 0 0 0 0 0 0 0
dram_eff_bins: 0 0 0 0 0 0 0 0 0 0
mrqq: max=3 avg=0.00389105
Memory Partition 8: 
Cache L2_bank_016:
MSHR contents

Cache L2_bank_017:
MSHR contents

In Dram Latency Queue (total = 0): 
DRAM[8]: 16 bks, busW=4 BL=8 CL=16, tRRD=8 tCCD=2, tRCD=16 tRAS=37 tRP=16 tRC=52
n_cmd=26728 n_nop=26718 n_act=2 n_pre=0 n_ref_event=0 n_req=8 n_rd=8 n_rd_L2_A=0 n_write=0 n_wr_bk=0 bw_util=0.0005986
n_activity=104 dram_eff=0.1538
bk0: 4a 26704i bk1: 4a 26703i bk2: 0a 26727i bk3: 0a 26727i bk4: 0a 26727i bk5: 0a 26728i bk6: 0a 26728i bk7: 0a 26728i bk8: 0a 26728i bk9: 0a 26728i bk10: 0a 26728i bk11: 0a 26728i bk12: 0a 26728i bk13: 0a 26728i bk14: 0a 26728i bk15: 0a 26729i 

------------------------------------------------------------------------

Row_Buffer_Locality = 0.750000
Row_Buffer_Locality_read = 0.750000
Row_Buffer_Locality_write = -nan
Bank_Level_Parallism = 1.000000
Bank_Level_Parallism_Col = 1.000000
Bank_Level_Parallism_Ready = 1.000000
write_to_read_ratio_blp_rw_average = 0.000000
GrpLevelPara = 1.000000 

BW Util details:
bwutil = 0.000599 
total_CMD = 26728 
util_bw = 16 
Wasted_Col = 44 
Wasted_Row = 0 
Idle = 26668 

BW Util Bottlenecks: 
RCDc_limit = 32 
RCDWRc_limit = 0 
WTRc_limit = 0 
RTWc_limit = 0 
CCDLc_limit = 12 
rwq = 0 
CCDLc_limit_alone = 12 
WTRc_limit_alone = 0 
RTWc_limit_alone = 0 

Commands details: 
total_CMD = 26728 
n_nop = 26718 
Read = 8 
Write = 0 
L2_Alloc = 0 
L2_WB = 0 
n_act = 2 
n_pre = 0 
n_ref = 0 
n_req = 8 
total_req = 8 

Dual Bus Interface Util: 
issued_total_row = 2 
issued_total_col = 8 
Row_Bus_Util =  0.000075 
CoL_Bus_Util = 0.000299 
Either_Row_CoL_Bus_Util = 0.000374 
Issued_on_Two_Bus_Simul_Util = 0.000000 
issued_two_Eff = 0.000000 
queue_avg = 0.003854 


dram_util_bins: 0 0 0 0 0 0 0 0 0 0
dram_eff_bins: 0 0 0 0 0 0 0 0 0 0
mrqq: max=3 avg=0.00385364
Memory Partition 9: 
Cache L2_bank_018:
MSHR contents

Cache L2_bank_019:
MSHR contents

In Dram Latency Queue (total = 0): 
DRAM[9]: 16 bks, busW=4 BL=8 CL=16, tRRD=8 tCCD=2, tRCD=16 tRAS=37 tRP=16 tRC=52
n_cmd=26728 n_nop=26718 n_act=2 n_pre=0 n_ref_event=0 n_req=8 n_rd=8 n_rd_L2_A=0 n_write=0 n_wr_bk=0 bw_util=0.0005986
n_activity=104 dram_eff=0.1538
bk0: 4a 26704i bk1: 4a 26703i bk2: 0a 26727i bk3: 0a 26727i bk4: 0a 26727i bk5: 0a 26728i bk6: 0a 26728i bk7: 0a 26728i bk8: 0a 26728i bk9: 0a 26728i bk10: 0a 26728i bk11: 0a 26728i bk12: 0a 26728i bk13: 0a 26728i bk14: 0a 26728i bk15: 0a 26729i 

------------------------------------------------------------------------

Row_Buffer_Locality = 0.750000
Row_Buffer_Locality_read = 0.750000
Row_Buffer_Locality_write = -nan
Bank_Level_Parallism = 1.000000
Bank_Level_Parallism_Col = 1.000000
Bank_Level_Parallism_Ready = 1.000000
write_to_read_ratio_blp_rw_average = 0.000000
GrpLevelPara = 1.000000 

BW Util details:
bwutil = 0.000599 
total_CMD = 26728 
util_bw = 16 
Wasted_Col = 44 
Wasted_Row = 0 
Idle = 26668 

BW Util Bottlenecks: 
RCDc_limit = 32 
RCDWRc_limit = 0 
WTRc_limit = 0 
RTWc_limit = 0 
CCDLc_limit = 12 
rwq = 0 
CCDLc_limit_alone = 12 
WTRc_limit_alone = 0 
RTWc_limit_alone = 0 

Commands details: 
total_CMD = 26728 
n_nop = 26718 
Read = 8 
Write = 0 
L2_Alloc = 0 
L2_WB = 0 
n_act = 2 
n_pre = 0 
n_ref = 0 
n_req = 8 
total_req = 8 

Dual Bus Interface Util: 
issued_total_row = 2 
issued_total_col = 8 
Row_Bus_Util =  0.000075 
CoL_Bus_Util = 0.000299 
Either_Row_CoL_Bus_Util = 0.000374 
Issued_on_Two_Bus_Simul_Util = 0.000000 
issued_two_Eff = 0.000000 
queue_avg = 0.003816 


dram_util_bins: 0 0 0 0 0 0 0 0 0 0
dram_eff_bins: 0 0 0 0 0 0 0 0 0 0
mrqq: max=3 avg=0.00381622
Memory Partition 10: 
Cache L2_bank_020:
MSHR contents

Cache L2_bank_021:
MSHR contents

In Dram Latency Queue (total = 0): 
DRAM[10]: 16 bks, busW=4 BL=8 CL=16, tRRD=8 tCCD=2, tRCD=16 tRAS=37 tRP=16 tRC=52
n_cmd=26728 n_nop=26718 n_act=2 n_pre=0 n_ref_event=0 n_req=8 n_rd=8 n_rd_L2_A=0 n_write=0 n_wr_bk=0 bw_util=0.0005986
n_activity=104 dram_eff=0.1538
bk0: 4a 26704i bk1: 4a 26703i bk2: 0a 26727i bk3: 0a 26727i bk4: 0a 26727i bk5: 0a 26728i bk6: 0a 26728i bk7: 0a 26728i bk8: 0a 26728i bk9: 0a 26728i bk10: 0a 26728i bk11: 0a 26728i bk12: 0a 26728i bk13: 0a 26728i bk14: 0a 26728i bk15: 0a 26729i 

------------------------------------------------------------------------

Row_Buffer_Locality = 0.750000
Row_Buffer_Locality_read = 0.750000
Row_Buffer_Locality_write = -nan
Bank_Level_Parallism = 1.000000
Bank_Level_Parallism_Col = 1.000000
Bank_Level_Parallism_Ready = 1.000000
write_to_read_ratio_blp_rw_average = 0.000000
GrpLevelPara = 1.000000 

BW Util details:
bwutil = 0.000599 
total_CMD = 26728 
util_bw = 16 
Wasted_Col = 44 
Wasted_Row = 0 
Idle = 26668 

BW Util Bottlenecks: 
RCDc_limit = 32 
RCDWRc_limit = 0 
WTRc_limit = 0 
RTWc_limit = 0 
CCDLc_limit = 12 
rwq = 0 
CCDLc_limit_alone = 12 
WTRc_limit_alone = 0 
RTWc_limit_alone = 0 

Commands details: 
total_CMD = 26728 
n_nop = 26718 
Read = 8 
Write = 0 
L2_Alloc = 0 
L2_WB = 0 
n_act = 2 
n_pre = 0 
n_ref = 0 
n_req = 8 
total_req = 8 

Dual Bus Interface Util: 
issued_total_row = 2 
issued_total_col = 8 
Row_Bus_Util =  0.000075 
CoL_Bus_Util = 0.000299 
Either_Row_CoL_Bus_Util = 0.000374 
Issued_on_Two_Bus_Simul_Util = 0.000000 
issued_two_Eff = 0.000000 
queue_avg = 0.003928 


dram_util_bins: 0 0 0 0 0 0 0 0 0 0
dram_eff_bins: 0 0 0 0 0 0 0 0 0 0
mrqq: max=3 avg=0.00392846
Memory Partition 11: 
Cache L2_bank_022:
MSHR contents

Cache L2_bank_023:
MSHR contents

In Dram Latency Queue (total = 0): 
DRAM[11]: 16 bks, busW=4 BL=8 CL=16, tRRD=8 tCCD=2, tRCD=16 tRAS=37 tRP=16 tRC=52
[...]
rwq = 0 
CCDLc_limit_alone = 36 
WTRc_limit_alone = 0 
RTWc_limit_alone = 0 

Commands details: 
total_CMD = 484441 
n_nop = 484415 
Read = 24 
Write = 0 
L2_Alloc = 0 
L2_WB = 0 
n_act = 2 
n_pre = 0 
n_ref = 0 
n_req = 24 
total_req = 24 

Dual Bus Interface Util: 
issued_total_row = 2 
issued_total_col = 24 
Row_Bus_Util =  0.000004 
CoL_Bus_Util = 0.000050 
Either_Row_CoL_Bus_Util = 0.000054 
Issued_on_Two_Bus_Simul_Util = 0.000000 
issued_two_Eff = 0.000000 
queue_avg = 0.000260 


dram_util_bins: 0 0 0 0 0 0 0 0 0 0
dram_eff_bins: 0 0 0 0 0 0 0 0 0 0
mrqq: max=3 avg=0.000260094
Memory Partition 6: 
Cache L2_bank_012:
MSHR contents

Cache L2_bank_013:
MSHR contents

In Dram Latency Queue (total = 0): 
DRAM[6]: 16 bks, busW=4 BL=8 CL=16, tRRD=8 tCCD=2, tRCD=16 tRAS=37 tRP=16 tRC=52
n_cmd=484441 n_nop=484415 n_act=2 n_pre=0 n_ref_event=4568229571824690154 n_req=24 n_rd=24 n_rd_L2_A=0 n_write=0 n_wr_bk=0 bw_util=9.908e-05
n_activity=208 dram_eff=0.2308
bk0: 12a 484401i bk1: 12a 484400i bk2: 0a 484440i bk3: 0a 484440i bk4: 0a 484440i bk5: 0a 484441i bk6: 0a 484441i bk7: 0a 484441i bk8: 0a 484441i bk9: 0a 484441i bk10: 0a 484441i bk11: 0a 484441i bk12: 0a 484441i bk13: 0a 484441i bk14: 0a 484441i bk15: 0a 484442i 

------------------------------------------------------------------------

Row_Buffer_Locality = 0.916667
Row_Buffer_Locality_read = 0.916667
Row_Buffer_Locality_write = -nan
Bank_Level_Parallism = 1.000000
Bank_Level_Parallism_Col = 1.000000
Bank_Level_Parallism_Ready = 1.000000
write_to_read_ratio_blp_rw_average = 0.000000
GrpLevelPara = 1.000000 

BW Util details:
bwutil = 0.000099 
total_CMD = 484441 
util_bw = 48 
Wasted_Col = 68 
Wasted_Row = 0 
Idle = 484325 

BW Util Bottlenecks: 
RCDc_limit = 32 
RCDWRc_limit = 0 
WTRc_limit = 0 
RTWc_limit = 0 
CCDLc_limit = 36 
rwq = 0 
CCDLc_limit_alone = 36 
WTRc_limit_alone = 0 
RTWc_limit_alone = 0 

Commands details: 
total_CMD = 484441 
n_nop = 484415 
Read = 24 
Write = 0 
L2_Alloc = 0 
L2_WB = 0 
n_act = 2 
n_pre = 0 
n_ref = 4568229571824690154 
n_req = 24 
total_req = 24 

Dual Bus Interface Util: 
issued_total_row = 2 
issued_total_col = 24 
Row_Bus_Util =  0.000004 
CoL_Bus_Util = 0.000050 
Either_Row_CoL_Bus_Util = 0.000054 
Issued_on_Two_Bus_Simul_Util = 0.000000 
issued_two_Eff = 0.000000 
queue_avg = 0.000248 


dram_util_bins: 0 0 0 0 0 0 0 0 0 0
dram_eff_bins: 0 0 0 0 0 0 0 0 0 0
mrqq: max=3 avg=0.000247708
Memory Partition 7: 
Cache L2_bank_014:
MSHR contents

Cache L2_bank_015:
MSHR contents

In Dram Latency Queue (total = 0): 
DRAM[7]: 16 bks, busW=4 BL=8 CL=16, tRRD=8 tCCD=2, tRCD=16 tRAS=37 tRP=16 tRC=52
n_cmd=484441 n_nop=484415 n_act=2 n_pre=0 n_ref_event=0 n_req=24 n_rd=24 n_rd_L2_A=0 n_write=0 n_wr_bk=0 bw_util=9.908e-05
n_activity=208 dram_eff=0.2308
bk0: 12a 484401i bk1: 12a 484400i bk2: 0a 484440i bk3: 0a 484440i bk4: 0a 484440i bk5: 0a 484441i bk6: 0a 484441i bk7: 0a 484441i bk8: 0a 484441i bk9: 0a 484441i bk10: 0a 484441i bk11: 0a 484441i bk12: 0a 484441i bk13: 0a 484441i bk14: 0a 484441i bk15: 0a 484442i 

------------------------------------------------------------------------

Row_Buffer_Locality = 0.916667
Row_Buffer_Locality_read = 0.916667
Row_Buffer_Locality_write = -nan
Bank_Level_Parallism = 1.000000
Bank_Level_Parallism_Col = 1.000000
Bank_Level_Parallism_Ready = 1.000000
write_to_read_ratio_blp_rw_average = 0.000000
GrpLevelPara = 1.000000 

BW Util details:
bwutil = 0.000099 
total_CMD = 484441 
util_bw = 48 
Wasted_Col = 68 
Wasted_Row = 0 
Idle = 484325 

BW Util Bottlenecks: 
RCDc_limit = 32 
RCDWRc_limit = 0 
WTRc_limit = 0 
RTWc_limit = 0 
CCDLc_limit = 36 
rwq = 0 
CCDLc_limit_alone = 36 
WTRc_limit_alone = 0 
RTWc_limit_alone = 0 

Commands details: 
total_CMD = 484441 
n_nop = 484415 
Read = 24 
Write = 0 
L2_Alloc = 0 
L2_WB = 0 
n_act = 2 
n_pre = 0 
n_ref = 0 
n_req = 24 
total_req = 24 

Dual Bus Interface Util: 
issued_total_row = 2 
issued_total_col = 24 
Row_Bus_Util =  0.000004 
CoL_Bus_Util = 0.000050 
Either_Row_CoL_Bus_Util = 0.000054 
Issued_on_Two_Bus_Simul_Util = 0.000000 
issued_two_Eff = 0.000000 
queue_avg = 0.000258 


dram_util_bins: 0 0 0 0 0 0 0 0 0 0
dram_eff_bins: 0 0 0 0 0 0 0 0 0 0
mrqq: max=3 avg=0.000258029
Memory Partition 8: 
Cache L2_bank_016:
MSHR contents

Cache L2_bank_017:
MSHR contents

In Dram Latency Queue (total = 0): 
DRAM[8]: 16 bks, busW=4 BL=8 CL=16, tRRD=8 tCCD=2, tRCD=16 tRAS=37 tRP=16 tRC=52
n_cmd=484441 n_nop=484415 n_act=2 n_pre=0 n_ref_event=0 n_req=24 n_rd=24 n_rd_L2_A=0 n_write=0 n_wr_bk=0 bw_util=9.908e-05
n_activity=208 dram_eff=0.2308
bk0: 12a 484399i bk1: 12a 484399i bk2: 0a 484440i bk3: 0a 484440i bk4: 0a 484440i bk5: 0a 484441i bk6: 0a 484441i bk7: 0a 484441i bk8: 0a 484441i bk9: 0a 484441i bk10: 0a 484441i bk11: 0a 484441i bk12: 0a 484441i bk13: 0a 484441i bk14: 0a 484441i bk15: 0a 484442i 

------------------------------------------------------------------------

Row_Buffer_Locality = 0.916667
Row_Buffer_Locality_read = 0.916667
Row_Buffer_Locality_write = -nan
Bank_Level_Parallism = 1.000000
Bank_Level_Parallism_Col = 1.000000
Bank_Level_Parallism_Ready = 1.000000
write_to_read_ratio_blp_rw_average = 0.000000
GrpLevelPara = 1.000000 

BW Util details:
bwutil = 0.000099 
total_CMD = 484441 
util_bw = 48 
Wasted_Col = 68 
Wasted_Row = 0 
Idle = 484325 

BW Util Bottlenecks: 
RCDc_limit = 32 
RCDWRc_limit = 0 
WTRc_limit = 0 
RTWc_limit = 0 
CCDLc_limit = 36 
rwq = 0 
CCDLc_limit_alone = 36 
WTRc_limit_alone = 0 
RTWc_limit_alone = 0 

Commands details: 
total_CMD = 484441 
n_nop = 484415 
Read = 24 
Write = 0 
L2_Alloc = 0 
L2_WB = 0 
n_act = 2 
n_pre = 0 
n_ref = 0 
n_req = 24 
total_req = 24 

Dual Bus Interface Util: 
issued_total_row = 2 
issued_total_col = 24 
Row_Bus_Util =  0.000004 
CoL_Bus_Util = 0.000050 
Either_Row_CoL_Bus_Util = 0.000054 
Issued_on_Two_Bus_Simul_Util = 0.000000 
issued_two_Eff = 0.000000 
queue_avg = 0.000262 


dram_util_bins: 0 0 0 0 0 0 0 0 0 0
dram_eff_bins: 0 0 0 0 0 0 0 0 0 0
mrqq: max=3 avg=0.000262158
Memory Partition 9: 
Cache L2_bank_018:
MSHR contents

Cache L2_bank_019:
MSHR contents

In Dram Latency Queue (total = 0): 
DRAM[9]: 16 bks, busW=4 BL=8 CL=16, tRRD=8 tCCD=2, tRCD=16 tRAS=37 tRP=16 tRC=52
n_cmd=484441 n_nop=484415 n_act=2 n_pre=0 n_ref_event=0 n_req=24 n_rd=24 n_rd_L2_A=0 n_write=0 n_wr_bk=0 bw_util=9.908e-05
n_activity=208 dram_eff=0.2308
bk0: 12a 484401i bk1: 12a 484400i bk2: 0a 484440i bk3: 0a 484440i bk4: 0a 484440i bk5: 0a 484441i bk6: 0a 484441i bk7: 0a 484441i bk8: 0a 484441i bk9: 0a 484441i bk10: 0a 484441i bk11: 0a 484441i bk12: 0a 484441i bk13: 0a 484441i bk14: 0a 484441i bk15: 0a 484442i 

------------------------------------------------------------------------

Row_Buffer_Locality = 0.916667
Row_Buffer_Locality_read = 0.916667
Row_Buffer_Locality_write = -nan
Bank_Level_Parallism = 1.000000
Bank_Level_Parallism_Col = 1.000000
Bank_Level_Parallism_Ready = 1.000000
write_to_read_ratio_blp_rw_average = 0.000000
GrpLevelPara = 1.000000 

BW Util details:
bwutil = 0.000099 
total_CMD = 484441 
util_bw = 48 
Wasted_Col = 68 
Wasted_Row = 0 
Idle = 484325 

BW Util Bottlenecks: 
RCDc_limit = 32 
RCDWRc_limit = 0 
WTRc_limit = 0 
RTWc_limit = 0 
CCDLc_limit = 36 
rwq = 0 
CCDLc_limit_alone = 36 
WTRc_limit_alone = 0 
RTWc_limit_alone = 0 

Commands details: 
total_CMD = 484441 
n_nop = 484415 
Read = 24 
Write = 0 
L2_Alloc = 0 
L2_WB = 0 
n_act = 2 
n_pre = 0 
n_ref = 0 
n_req = 24 
total_req = 24 

Dual Bus Interface Util: 
issued_total_row = 2 
issued_total_col = 24 
Row_Bus_Util =  0.000004 
CoL_Bus_Util = 0.000050 
Either_Row_CoL_Bus_Util = 0.000054 
Issued_on_Two_Bus_Simul_Util = 0.000000 
issued_two_Eff = 0.000000 
queue_avg = 0.000248 


dram_util_bins: 0 0 0 0 0 0 0 0 0 0
dram_eff_bins: 0 0 0 0 0 0 0 0 0 0
mrqq: max=3 avg=0.000247708
Memory Partition 10: 
Cache L2_bank_020:
MSHR contents

Cache L2_bank_021:
MSHR contents

In Dram Latency Queue (total = 0): 
DRAM[10]: 16 bks, busW=4 BL=8 CL=16, tRRD=8 tCCD=2, tRCD=16 tRAS=37 tRP=16 tRC=52
n_cmd=484441 n_nop=484419 n_act=2 n_pre=0 n_ref_event=0 n_req=20 n_rd=20 n_rd_L2_A=0 n_write=0 n_wr_bk=0 bw_util=8.257e-05
n_activity=182 dram_eff=0.2198
bk0: 12a 484401i bk1: 8a 484408i bk2: 0a 484440i bk3: 0a 484440i bk4: 0a 484440i bk5: 0a 484441i bk6: 0a 484441i bk7: 0a 484441i bk8: 0a 484441i bk9: 0a 484441i bk10: 0a 484441i bk11: 0a 484441i bk12: 0a 484441i bk13: 0a 484441i bk14: 0a 484441i bk15: 0a 484442i 

------------------------------------------------------------------------

Row_Buffer_Locality = 0.900000
Row_Buffer_Locality_read = 0.900000
Row_Buffer_Locality_write = -nan
Bank_Level_Parallism = 1.000000
Bank_Level_Parallism_Col = 1.000000
Bank_Level_Parallism_Ready = 1.000000
write_to_read_ratio_blp_rw_average = 0.000000
GrpLevelPara = 1.000000 

BW Util details:
bwutil = 0.000083 
total_CMD = 484441 
util_bw = 40 
Wasted_Col = 62 
Wasted_Row = 0 
Idle = 484339 

BW Util Bottlenecks: 
RCDc_limit = 32 
RCDWRc_limit = 0 
WTRc_limit = 0 
RTWc_limit = 0 
CCDLc_limit = 30 
rwq = 0 
CCDLc_limit_alone = 30 
WTRc_limit_alone = 0 
RTWc_limit_alone = 0 

Commands details: 
total_CMD = 484441 
n_nop = 484419 
Read = 20 
Write = 0 
L2_Alloc = 0 
L2_WB = 0 
n_act = 2 
n_pre = 0 
n_ref = 0 
n_req = 20 
total_req = 20 

Dual Bus Interface Util: 
issued_total_row = 2 
issued_total_col = 20 
Row_Bus_Util =  0.000004 
CoL_Bus_Util = 0.000041 
Either_Row_CoL_Bus_Util = 0.000045 
Issued_on_Two_Bus_Simul_Util = 0.000000 
issued_two_Eff = 0.000000 
queue_avg = 0.000244 


dram_util_bins: 0 0 0 0 0 0 0 0 0 0
dram_eff_bins: 0 0 0 0 0 0 0 0 0 0
mrqq: max=3 avg=0.00024358
Memory Partition 11: 
Cache L2_bank_022:
MSHR contents

Cache L2_bank_023:
MSHR contents

In Dram Latency Queue (total = 0): 
DRAM[11]: 16 bks, busW=4 BL=8 CL=16, tRRD=8 tCCD=2, tRCD=16 tRAS=37 tRP=16 tRC=52
n_cmd=484441 n_nop=484423 n_act=2 n_pre=0 n_ref_event=0 n_req=16 n_rd=16 n_rd_L2_A=0 n_write=0 n_wr_bk=0 bw_util=6.606e-05
n_activity=156 dram_eff=0.2051
bk0: 8a 484408i bk1: 8a 484408i bk2: 0a 484440i bk3: 0a 484440i bk4: 0a 484440i bk5: 0a 484441i bk6: 0a 484441i bk7: 0a 484441i bk8: 0a 484441i bk9: 0a 484441i bk10: 0a 484441i bk11: 0a 484441i bk12: 0a 484441i bk13: 0a 484441i bk14: 0a 484441i bk15: 0a 484442i 

------------------------------------------------------------------------

Row_Buffer_Locality = 0.875000
Row_Buffer_Locality_read = 0.875000
Row_Buffer_Locality_write = -nan
Bank_Level_Parallism = 1.000000
Bank_Level_Parallism_Col = 1.000000
Bank_Level_Parallism_Ready = 1.000000
write_to_read_ratio_blp_rw_average = 0.000000
GrpLevelPara = 1.000000 

BW Util details:
bwutil = 0.000066 
total_CMD = 484441 
util_bw = 32 
Wasted_Col = 56 
Wasted_Row = 0 
Idle = 484353 

BW Util Bottlenecks: 
RCDc_limit = 32 
RCDWRc_limit = 0 
WTRc_limit = 0 
RTWc_limit = 0 
CCDLc_limit = 24 
rwq = 0 
CCDLc_limit_alone = 24 
WTRc_limit_alone = 0 
RTWc_limit_alone = 0 

Commands details: 
total_CMD = 484441 
n_nop = 484423 
Read = 16 
Write = 0 
L2_Alloc = 0 
L2_WB = 0 
n_act = 2 
n_pre = 0 
n_ref = 0 
n_req = 16 
total_req = 16 

Dual Bus Interface Util: 
issued_total_row = 2 
issued_total_col = 16 
Row_Bus_Util =  0.000004 
CoL_Bus_Util = 0.000033 
Either_Row_CoL_Bus_Util = 0.000037 
Issued_on_Two_Bus_Simul_Util = 0.000000 
issued_two_Eff = 0.000000 
queue_avg = 0.000239 


dram_util_bins: 0 0 0 0 0 0 0 0 0 0
dram_eff_bins: 0 0 0 0 0 0 0 0 0 0
mrqq: max=3 avg=0.000239451

========= L2 cache stats =========
L2_cache_bank[0]: Access = 2339, Miss = 14, Miss_rate = 0.006, Pending_hits = 52, Reservation_fails = 0
L2_cache_bank[1]: Access = 2311, Miss = 12, Miss_rate = 0.005, Pending_hits = 52, Reservation_fails = 0
L2_cache_bank[2]: Access = 2734, Miss = 12, Miss_rate = 0.004, Pending_hits = 52, Reservation_fails = 0
L2_cache_bank[3]: Access = 1775, Miss = 12, Miss_rate = 0.007, Pending_hits = 52, Reservation_fails = 0
L2_cache_bank[4]: Access = 1777, Miss = 12, Miss_rate = 0.007, Pending_hits = 52, Reservation_fails = 0
L2_cache_bank[5]: Access = 1360, Miss = 12, Miss_rate = 0.009, Pending_hits = 52, Reservation_fails = 0
L2_cache_bank[6]: Access = 1355, Miss = 12, Miss_rate = 0.009, Pending_hits = 52, Reservation_fails = 0
L2_cache_bank[7]: Access = 1357, Miss = 12, Miss_rate = 0.009, Pending_hits = 52, Reservation_fails = 0
L2_cache_bank[8]: Access = 2314, Miss = 12, Miss_rate = 0.005, Pending_hits = 52, Reservation_fails = 0
L2_cache_bank[9]: Access = 2312, Miss = 12, Miss_rate = 0.005, Pending_hits = 52, Reservation_fails = 0
L2_cache_bank[10]: Access = 3156, Miss = 12, Miss_rate = 0.004, Pending_hits = 52, Reservation_fails = 0
L2_cache_bank[11]: Access = 2207, Miss = 12, Miss_rate = 0.005, Pending_hits = 104, Reservation_fails = 0
L2_cache_bank[12]: Access = 2210, Miss = 12, Miss_rate = 0.005, Pending_hits = 104, Reservation_fails = 0
L2_cache_bank[13]: Access = 1365, Miss = 12, Miss_rate = 0.009, Pending_hits = 104, Reservation_fails = 0
L2_cache_bank[14]: Access = 1367, Miss = 12, Miss_rate = 0.009, Pending_hits = 104, Reservation_fails = 0
L2_cache_bank[15]: Access = 1370, Miss = 12, Miss_rate = 0.009, Pending_hits = 104, Reservation_fails = 0
L2_cache_bank[16]: Access = 1843, Miss = 12, Miss_rate = 0.007, Pending_hits = 104, Reservation_fails = 0
L2_cache_bank[17]: Access = 1845, Miss = 12, Miss_rate = 0.007, Pending_hits = 104, Reservation_fails = 0
L2_cache_bank[18]: Access = 2678, Miss = 12, Miss_rate = 0.004, Pending_hits = 104, Reservation_fails = 0
L2_cache_bank[19]: Access = 2206, Miss = 12, Miss_rate = 0.005, Pending_hits = 104, Reservation_fails = 0
L2_cache_bank[20]: Access = 2201, Miss = 12, Miss_rate = 0.005, Pending_hits = 104, Reservation_fails = 0
L2_cache_bank[21]: Access = 1307, Miss = 8, Miss_rate = 0.006, Pending_hits = 52, Reservation_fails = 0
L2_cache_bank[22]: Access = 1310, Miss = 8, Miss_rate = 0.006, Pending_hits = 52, Reservation_fails = 0
L2_cache_bank[23]: Access = 1305, Miss = 8, Miss_rate = 0.006, Pending_hits = 52, Reservation_fails = 0
L2_total_cache_accesses = 46004
L2_total_cache_misses = 278
L2_total_cache_miss_rate = 0.0060
L2_total_cache_pending_hits = 1768
L2_total_cache_reservation_fails = 0
L2_total_cache_breakdown:
	L2_cache_stats_breakdown[GLOBAL_ACC_R][HIT] = 16896
	L2_cache_stats_breakdown[GLOBAL_ACC_R][HIT_RESERVED] = 0
	L2_cache_stats_breakdown[GLOBAL_ACC_R][MISS] = 0
	L2_cache_stats_breakdown[GLOBAL_ACC_R][RESERVATION_FAIL] = 0
	L2_cache_stats_breakdown[GLOBAL_ACC_R][SECTOR_MISS] = 0
	L2_cache_stats_breakdown[LOCAL_ACC_R][HIT] = 0
	L2_cache_stats_breakdown[LOCAL_ACC_R][HIT_RESERVED] = 0
	L2_cache_stats_breakdown[LOCAL_ACC_R][MISS] = 0
	L2_cache_stats_breakdown[LOCAL_ACC_R][RESERVATION_FAIL] = 0
	L2_cache_stats_breakdown[LOCAL_ACC_R][SECTOR_MISS] = 0
	L2_cache_stats_breakdown[CONST_ACC_R][HIT] = 26
	L2_cache_stats_breakdown[CONST_ACC_R][HIT_RESERVED] = 0
	L2_cache_stats_breakdown[CONST_ACC_R][MISS] = 1
	L2_cache_stats_breakdown[CONST_ACC_R][RESERVATION_FAIL] = 0
	L2_cache_stats_breakdown[CONST_ACC_R][SECTOR_MISS] = 1
	L2_cache_stats_breakdown[TEXTURE_ACC_R][HIT] = 0
	L2_cache_stats_breakdown[TEXTURE_ACC_R][HIT_RESERVED] = 0
	L2_cache_stats_breakdown[TEXTURE_ACC_R][MISS] = 0
	L2_cache_stats_breakdown[TEXTURE_ACC_R][RESERVATION_FAIL] = 0
	L2_cache_stats_breakdown[TEXTURE_ACC_R][SECTOR_MISS] = 0
	L2_cache_stats_breakdown[GLOBAL_ACC_W][HIT] = 11776
	L2_cache_stats_breakdown[GLOBAL_ACC_W][HIT_RESERVED] = 0
	L2_cache_stats_breakdown[GLOBAL_ACC_W][MISS] = 0
	L2_cache_stats_breakdown[GLOBAL_ACC_W][RESERVATION_FAIL] = 0
	L2_cache_stats_breakdown[GLOBAL_ACC_W][SECTOR_MISS] = 0
	L2_cache_stats_breakdown[LOCAL_ACC_W][HIT] = 0
	L2_cache_stats_breakdown[LOCAL_ACC_W][HIT_RESERVED] = 0
	L2_cache_stats_breakdown[LOCAL_ACC_W][MISS] = 0
	L2_cache_stats_breakdown[LOCAL_ACC_W][RESERVATION_FAIL] = 0
	L2_cache_stats_breakdown[LOCAL_ACC_W][SECTOR_MISS] = 0
	L2_cache_stats_breakdown[L1_WRBK_ACC][HIT] = 0
	L2_cache_stats_breakdown[L1_WRBK_ACC][HIT_RESERVED] = 0
	L2_cache_stats_breakdown[L1_WRBK_ACC][MISS] = 0
	L2_cache_stats_breakdown[L1_WRBK_ACC][RESERVATION_FAIL] = 0
	L2_cache_stats_breakdown[L1_WRBK_ACC][SECTOR_MISS] = 0
	L2_cache_stats_breakdown[L2_WRBK_ACC][HIT] = 0
	L2_cache_stats_breakdown[L2_WRBK_ACC][HIT_RESERVED] = 0
	L2_cache_stats_breakdown[L2_WRBK_ACC][MISS] = 0
	L2_cache_stats_breakdown[L2_WRBK_ACC][RESERVATION_FAIL] = 0
	L2_cache_stats_breakdown[L2_WRBK_ACC][SECTOR_MISS] = 0
	L2_cache_stats_breakdown[INST_ACC_R][HIT] = 15260
	L2_cache_stats_breakdown[INST_ACC_R][HIT_RESERVED] = 1768
	L2_cache_stats_breakdown[INST_ACC_R][MISS] = 69
	L2_cache_stats_breakdown[INST_ACC_R][RESERVATION_FAIL] = 0
	L2_cache_stats_breakdown[INST_ACC_R][SECTOR_MISS] = 207
	L2_cache_stats_breakdown[L1_WR_ALLOC_R][HIT] = 0
	L2_cache_stats_breakdown[L1_WR_ALLOC_R][HIT_RESERVED] = 0
	L2_cache_stats_breakdown[L1_WR_ALLOC_R][MISS] = 0
	L2_cache_stats_breakdown[L1_WR_ALLOC_R][RESERVATION_FAIL] = 0
	L2_cache_stats_breakdown[L1_WR_ALLOC_R][SECTOR_MISS] = 0
	L2_cache_stats_breakdown[L2_WR_ALLOC_R][HIT] = 0
	L2_cache_stats_breakdown[L2_WR_ALLOC_R][HIT_RESERVED] = 0
	L2_cache_stats_breakdown[L2_WR_ALLOC_R][MISS] = 0
	L2_cache_stats_breakdown[L2_WR_ALLOC_R][RESERVATION_FAIL] = 0
	L2_cache_stats_breakdown[L2_WR_ALLOC_R][SECTOR_MISS] = 0
	L2_cache_stats_breakdown[GLOBAL_ACC_R][TOTAL_ACCESS] = 16896
	L2_cache_stats_breakdown[CONST_ACC_R][TOTAL_ACCESS] = 28
	L2_cache_stats_breakdown[GLOBAL_ACC_W][TOTAL_ACCESS] = 11776
	L2_cache_stats_breakdown[INST_ACC_R][TOTAL_ACCESS] = 17304
L2_total_cache_reservation_fail_breakdown:
L2_cache_data_port_util = 0.007
L2_cache_fill_port_util = 0.000

icnt_total_pkts_mem_to_simt=46004
icnt_total_pkts_simt_to_mem=33012
LD_mem_lat_dist  0 0 0 0 0 0 0 0 0 0 0 0 0 0 0 0 0 0 0 0 0 0 0 0 0 0 0
ST_mem_lat_dist  0 0 0 0 0 0 0 0 0 0 0 0 0 0 0 0 0 0 0 0 0 0 0 0 0 0 0
----------------------------Interconnect-DETAILS--------------------------------
Class 0:
Packet latency average = 5.04682
	minimum = 5
	maximum = 7
Network latency average = 5.04682
	minimum = 5
	maximum = 7
Slowest packet = 78918
Flit latency average = 5.04682
	minimum = 5
	maximum = 7
Slowest flit = 78918
Fragmentation average = 0
	minimum = 0
	maximum = 0
Injected packet rate average = 0.000998531
	minimum = 0 (at node 0)
	maximum = 0.0161168 (at node 3)
Accepted packet rate average = 0.000998531
	minimum = 0 (at node 0)
	maximum = 0.0218274 (at node 3)
Injected flit rate average = 0.000998531
	minimum = 0 (at node 0)
	maximum = 0.0161168 (at node 3)
Accepted flit rate average= 0.000998531
	minimum = 0 (at node 0)
	maximum = 0.0218274 (at node 3)
Injected packet length average = 1
Accepted packet length average = 1
Total in-flight flits = 0 (0 measured)
====== Overall Traffic Statistics ======
====== Traffic class 0 ======
Packet latency average = 5.51066 (31 samples)
	minimum = 5 (31 samples)
	maximum = 17.8065 (31 samples)
Network latency average = 5.51064 (31 samples)
	minimum = 5 (31 samples)
	maximum = 17.8065 (31 samples)
Flit latency average = 5.51064 (31 samples)
	minimum = 5 (31 samples)
	maximum = 17.8065 (31 samples)
Fragmentation average = 0 (31 samples)
	minimum = 0 (31 samples)
	maximum = 0 (31 samples)
Injected packet rate average = 0.0080105 (31 samples)
	minimum = 0.000116148 (31 samples)
	maximum = 0.0247894 (31 samples)
Accepted packet rate average = 0.0080105 (31 samples)
	minimum = 2.9037e-05 (31 samples)
	maximum = 0.0254011 (31 samples)
Injected flit rate average = 0.0080105 (31 samples)
	minimum = 0.000116148 (31 samples)
	maximum = 0.0247894 (31 samples)
Accepted flit rate average = 0.0080105 (31 samples)
	minimum = 2.9037e-05 (31 samples)
	maximum = 0.0254011 (31 samples)
Injected packet size average = 1 (31 samples)
Accepted packet size average = 1 (31 samples)
Hops average = 1 (31 samples)
----------------------------END-of-Interconnect-DETAILS-------------------------


gpgpu_simulation_time = 0 days, 0 hrs, 0 min, 56 sec (56 sec)
gpgpu_simulation_rate = 27837 (inst/sec)
gpgpu_simulation_rate = 4821 (cycle/sec)
gpgpu_silicon_slowdown = 173615x
GPGPU-Sim: *** exit detected ***
