

        *** GPGPU-Sim Simulator Version 4.0.0  [build gpgpu-sim_git-commit-90ec3399763d7c8512cfe7dc193473086c38ca38_modified_0.0] ***


GPGPU-Sim PTX: simulation mode 0 (can change with PTX_SIM_MODE_FUNC environment variable:
               1=functional simulation only, 0=detailed performance simulator)
GPGPU-Sim PTX: overriding embedded ptx with ptx file (PTX_SIM_USE_PTX_FILE is set)
GPGPU-Sim: Configuration options:

-save_embedded_ptx                      0 # saves ptx files embedded in binary as <n>.ptx
-keep                                   0 # keep intermediate files created by GPGPU-Sim when interfacing with external programs
-gpgpu_ptx_save_converted_ptxplus                    0 # Saved converted ptxplus to a file
-gpgpu_occupancy_sm_number                   62 # The SM number to pass to ptxas when getting register usage for computing GPU occupancy. This parameter is required in the config.
-ptx_opcode_latency_int      4,13,4,5,145,32 # Opcode latencies for integers <ADD,MAX,MUL,MAD,DIV,SHFL>Default 1,1,19,25,145,32
-ptx_opcode_latency_fp          4,13,4,5,39 # Opcode latencies for single precision floating points <ADD,MAX,MUL,MAD,DIV>Default 1,1,1,1,30
-ptx_opcode_latency_dp         8,19,8,8,330 # Opcode latencies for double precision floating points <ADD,MAX,MUL,MAD,DIV>Default 8,8,8,8,335
-ptx_opcode_latency_sfu                  200 # Opcode latencies for SFU instructionsDefault 8
-ptx_opcode_latency_tesnor                   64 # Opcode latencies for Tensor instructionsDefault 64
-ptx_opcode_initiation_int          1,1,1,1,4,4 # Opcode initiation intervals for integers <ADD,MAX,MUL,MAD,DIV,SHFL>Default 1,1,4,4,32,4
-ptx_opcode_initiation_fp            1,2,1,1,4 # Opcode initiation intervals for single precision floating points <ADD,MAX,MUL,MAD,DIV>Default 1,1,1,1,5
-ptx_opcode_initiation_dp          2,8,8,8,130 # Opcode initiation intervals for double precision floating points <ADD,MAX,MUL,MAD,DIV>Default 8,8,8,8,130
-ptx_opcode_initiation_sfu                    2 # Opcode initiation intervals for sfu instructionsDefault 8
-ptx_opcode_initiation_tensor                   64 # Opcode initiation intervals for tensor instructionsDefault 64
-cdp_latency         7200,8000,100,12000,1600 # CDP API latency <cudaStreamCreateWithFlags, cudaGetParameterBufferV2_init_perWarp, cudaGetParameterBufferV2_perKernel, cudaLaunchDeviceV2_init_perWarp, cudaLaunchDevicV2_perKernel>Default 7200,8000,100,12000,1600
-network_mode                           1 # Interconnection network mode
-inter_config_file   config_kepler_islip.icnt # Interconnection network config file
-icnt_in_buffer_limit                   64 # in_buffer_limit
-icnt_out_buffer_limit                   64 # out_buffer_limit
-icnt_subnets                           2 # subnets
-icnt_arbiter_algo                      1 # arbiter_algo
-icnt_verbose                           0 # inct_verbose
-icnt_grant_cycles                      1 # grant_cycles
-gpgpu_ptx_use_cuobjdump                    1 # Use cuobjdump to extract ptx and sass from binaries
-gpgpu_experimental_lib_support                    0 # Try to extract code from cuda libraries [Broken because of unknown cudaGetExportTable]
-checkpoint_option                      0 #  checkpointing flag (0 = no checkpoint)
-checkpoint_kernel                      1 #  checkpointing during execution of which kernel (1- 1st kernel)
-checkpoint_CTA                         0 #  checkpointing after # of CTA (< less than total CTA)
-resume_option                          0 #  resume flag (0 = no resume)
-resume_kernel                          0 #  Resume from which kernel (1= 1st kernel)
-resume_CTA                             0 #  resume from which CTA 
-checkpoint_CTA_t                       0 #  resume from which CTA 
-checkpoint_insn_Y                      0 #  resume from which CTA 
-gpgpu_ptx_convert_to_ptxplus                    0 # Convert SASS (native ISA) to ptxplus and run ptxplus
-gpgpu_ptx_force_max_capability                   35 # Force maximum compute capability
-gpgpu_ptx_inst_debug_to_file                    0 # Dump executed instructions' debug information to file
-gpgpu_ptx_inst_debug_file       inst_debug.txt # Executed instructions' debug output file
-gpgpu_ptx_inst_debug_thread_uid                    1 # Thread UID for executed instructions' debug output
-gpgpu_simd_model                       1 # 1 = post-dominator
-gpgpu_shader_core_pipeline              2048:32 # shader core pipeline config, i.e., {<nthread>:<warpsize>}
-gpgpu_tex_cache:l1  N:16:128:24,L:R:m:N:L,T:128:4,128:2 # per-shader L1 texture cache  (READ-ONLY) config  {<nsets>:<bsize>:<assoc>,<rep>:<wr>:<alloc>:<wr_alloc>,<mshr>:<N>:<merge>,<mq>:<rf>}
-gpgpu_const_cache:l1 N:128:64:2,L:R:f:N:L,S:2:64,4 # per-shader L1 constant memory cache  (READ-ONLY) config  {<nsets>:<bsize>:<assoc>,<rep>:<wr>:<alloc>:<wr_alloc>,<mshr>:<N>:<merge>,<mq>} 
-gpgpu_cache:il1     N:8:128:4,L:R:f:N:L,S:2:48,4 # shader L1 instruction cache config  {<nsets>:<bsize>:<assoc>,<rep>:<wr>:<alloc>:<wr_alloc>,<mshr>:<N>:<merge>,<mq>} 
-gpgpu_cache:dl1     S:4:128:32,L:L:s:N:L,A:256:8,16:0,32 # per-shader L1 data cache config  {<nsets>:<bsize>:<assoc>,<rep>:<wr>:<alloc>:<wr_alloc>,<mshr>:<N>:<merge>,<mq> | none}
-gpgpu_l1_banks                         1 # The number of L1 cache banks
-gpgpu_l1_banks_byte_interleaving                   32 # l1 banks byte interleaving granularity
-gpgpu_l1_banks_hashing_function                    0 # l1 banks hashing function
-gpgpu_l1_latency                      82 # L1 Hit Latency
-gpgpu_smem_latency                     3 # smem Latency
-gpgpu_cache:dl1PrefL1 S:4:128:96,L:L:s:N:L,A:256:8,16:0,32 # per-shader L1 data cache config  {<nsets>:<bsize>:<assoc>,<rep>:<wr>:<alloc>:<wr_alloc>,<mshr>:<N>:<merge>,<mq> | none}
-gpgpu_cache:dl1PrefShared S:4:128:32,L:L:s:N:L,A:256:8,16:0,32 # per-shader L1 data cache config  {<nsets>:<bsize>:<assoc>,<rep>:<wr>:<alloc>:<wr_alloc>,<mshr>:<N>:<merge>,<mq> | none}
-gpgpu_gmem_skip_L1D                    1 # global memory access skip L1D cache (implements -Xptxas -dlcm=cg, default=no skip)
-gpgpu_perfect_mem                      0 # enable perfect memory mode (no cache miss)
-n_regfile_gating_group                    4 # group of lanes that should be read/written together)
-gpgpu_clock_gated_reg_file                    0 # enable clock gated reg file for power calculations
-gpgpu_clock_gated_lanes                    0 # enable clock gated lanes for power calculations
-gpgpu_shader_registers                65536 # Number of registers per shader core. Limits number of concurrent CTAs. (default 8192)
-gpgpu_registers_per_block                 8192 # Maximum number of registers per CTA. (default 8192)
-gpgpu_ignore_resources_limitation                    1 # gpgpu_ignore_resources_limitation (default 0)
-gpgpu_shader_cta                      16 # Maximum number of concurrent CTAs in shader (default 8)
-gpgpu_num_cta_barriers                   16 # Maximum number of named barriers per CTA (default 16)
-gpgpu_n_clusters                      14 # number of processing clusters
-gpgpu_n_cores_per_cluster                    1 # number of simd cores per cluster
-gpgpu_n_cluster_ejection_buffer_size                   32 # number of packets in ejection buffer
-gpgpu_n_ldst_response_buffer_size                    2 # number of response packets in ld/st unit ejection buffer
-gpgpu_shmem_per_block                49152 # Size of shared memory per thread block or CTA (default 48kB)
-gpgpu_shmem_size                   49152 # Size of shared memory per shader core (default 16kB)
-gpgpu_adaptive_cache_config                    0 # adaptive_cache_config
-gpgpu_shmem_sizeDefault                49152 # Size of shared memory per shader core (default 16kB)
-gpgpu_shmem_size_PrefL1                16384 # Size of shared memory per shader core (default 16kB)
-gpgpu_shmem_size_PrefShared                49152 # Size of shared memory per shader core (default 16kB)
-gpgpu_shmem_num_banks                   32 # Number of banks in the shared memory in each shader core (default 16)
-gpgpu_shmem_limited_broadcast                    0 # Limit shared memory to do one broadcast per cycle (default on)
-gpgpu_shmem_warp_parts                    1 # Number of portions a warp is divided into for shared memory bank conflict check 
-gpgpu_mem_unit_ports                    1 # The number of memory transactions allowed per core cycle
-gpgpu_shmem_warp_parts                    1 # Number of portions a warp is divided into for shared memory bank conflict check 
-gpgpu_warpdistro_shader                   -1 # Specify which shader core to collect the warp size distribution from
-gpgpu_warp_issue_shader                    0 # Specify which shader core to collect the warp issue distribution from
-gpgpu_local_mem_map                    1 # Mapping from local memory space address to simulated GPU physical address space (default = enabled)
-gpgpu_num_reg_banks                   16 # Number of register banks (default = 8)
-gpgpu_reg_bank_use_warp_id                    0 # Use warp ID in mapping registers to banks (default = off)
-gpgpu_sub_core_model                    0 # Sub Core Volta/Pascal model (default = off)
-gpgpu_enable_specialized_operand_collector                    1 # enable_specialized_operand_collector
-gpgpu_operand_collector_num_units_sp                   12 # number of collector units (default = 4)
-gpgpu_operand_collector_num_units_dp                    6 # number of collector units (default = 0)
-gpgpu_operand_collector_num_units_sfu                    6 # number of collector units (default = 4)
-gpgpu_operand_collector_num_units_int                    0 # number of collector units (default = 0)
-gpgpu_operand_collector_num_units_tensor_core                    4 # number of collector units (default = 4)
-gpgpu_operand_collector_num_units_mem                    8 # number of collector units (default = 2)
-gpgpu_operand_collector_num_units_gen                    0 # number of collector units (default = 0)
-gpgpu_operand_collector_num_in_ports_sp                    2 # number of collector unit in ports (default = 1)
-gpgpu_operand_collector_num_in_ports_dp                    1 # number of collector unit in ports (default = 0)
-gpgpu_operand_collector_num_in_ports_sfu                    2 # number of collector unit in ports (default = 1)
-gpgpu_operand_collector_num_in_ports_int                    0 # number of collector unit in ports (default = 0)
-gpgpu_operand_collector_num_in_ports_tensor_core                    1 # number of collector unit in ports (default = 1)
-gpgpu_operand_collector_num_in_ports_mem                    1 # number of collector unit in ports (default = 1)
-gpgpu_operand_collector_num_in_ports_gen                    0 # number of collector unit in ports (default = 0)
-gpgpu_operand_collector_num_out_ports_sp                    2 # number of collector unit in ports (default = 1)
-gpgpu_operand_collector_num_out_ports_dp                    1 # number of collector unit in ports (default = 0)
-gpgpu_operand_collector_num_out_ports_sfu                    2 # number of collector unit in ports (default = 1)
-gpgpu_operand_collector_num_out_ports_int                    0 # number of collector unit in ports (default = 0)
-gpgpu_operand_collector_num_out_ports_tensor_core                    1 # number of collector unit in ports (default = 1)
-gpgpu_operand_collector_num_out_ports_mem                    1 # number of collector unit in ports (default = 1)
-gpgpu_operand_collector_num_out_ports_gen                    0 # number of collector unit in ports (default = 0)
-gpgpu_coalesce_arch                   35 # Coalescing arch (GT200 = 13, Fermi = 20)
-gpgpu_num_sched_per_core                    4 # Number of warp schedulers per core
-gpgpu_max_insn_issue_per_warp                    2 # Max number of instructions that can be issued per warp in one cycle by scheduler (either 1 or 2)
-gpgpu_dual_issue_diff_exec_units                    0 # should dual issue use two different execution unit resources (Default = 1)
-gpgpu_simt_core_sim_order                    1 # Select the simulation order of cores in a cluster (0=Fix, 1=Round-Robin)
-gpgpu_pipeline_widths 6,4,0,2,1,6,4,0,2,1,12 # Pipeline widths ID_OC_SP,ID_OC_DP,ID_OC_INT,ID_OC_SFU,ID_OC_MEM,OC_EX_SP,OC_EX_DP,OC_EX_INT,OC_EX_SFU,OC_EX_MEM,EX_WB,ID_OC_TENSOR_CORE,OC_EX_TENSOR_CORE
-gpgpu_tensor_core_avail                    0 # Tensor Core Available (default=0)
-gpgpu_num_sp_units                     6 # Number of SP units (default=1)
-gpgpu_num_dp_units                     4 # Number of DP units (default=0)
-gpgpu_num_int_units                    0 # Number of INT units (default=0)
-gpgpu_num_sfu_units                    2 # Number of SF units (default=1)
-gpgpu_num_tensor_core_units                    0 # Number of tensor_core units (default=1)
-gpgpu_num_mem_units                    1 # Number if ldst units (default=1) WARNING: not hooked up to anything
-gpgpu_scheduler                      lrr # Scheduler configuration: < lrr | gto | two_level_active > If two_level_active:<num_active_warps>:<inner_prioritization>:<outer_prioritization>For complete list of prioritization values see shader.h enum scheduler_prioritization_typeDefault: gto
-gpgpu_concurrent_kernel_sm                    0 # Support concurrent kernels on a SM (default = disabled)
-gpgpu_perfect_inst_const_cache                    0 # perfect inst and const cache mode, so all inst and const hits in the cache(default = disabled)
-gpgpu_inst_fetch_throughput                    8 # the number of fetched intruction per warp each cycle
-gpgpu_reg_file_port_throughput                    2 # the number ports of the register file
-specialized_unit_1         0,4,4,4,4,BRA # specialized unit config {<enabled>,<num_units>:<latency>:<initiation>,<ID_OC_SPEC>:<OC_EX_SPEC>,<NAME>}
-specialized_unit_2         0,4,4,4,4,BRA # specialized unit config {<enabled>,<num_units>:<latency>:<initiation>,<ID_OC_SPEC>:<OC_EX_SPEC>,<NAME>}
-specialized_unit_3         0,4,4,4,4,BRA # specialized unit config {<enabled>,<num_units>:<latency>:<initiation>,<ID_OC_SPEC>:<OC_EX_SPEC>,<NAME>}
-specialized_unit_4         0,4,4,4,4,BRA # specialized unit config {<enabled>,<num_units>:<latency>:<initiation>,<ID_OC_SPEC>:<OC_EX_SPEC>,<NAME>}
-specialized_unit_5         0,4,4,4,4,BRA # specialized unit config {<enabled>,<num_units>:<latency>:<initiation>,<ID_OC_SPEC>:<OC_EX_SPEC>,<NAME>}
-specialized_unit_6         0,4,4,4,4,BRA # specialized unit config {<enabled>,<num_units>:<latency>:<initiation>,<ID_OC_SPEC>:<OC_EX_SPEC>,<NAME>}
-specialized_unit_7         0,4,4,4,4,BRA # specialized unit config {<enabled>,<num_units>:<latency>:<initiation>,<ID_OC_SPEC>:<OC_EX_SPEC>,<NAME>}
-specialized_unit_8         0,4,4,4,4,BRA # specialized unit config {<enabled>,<num_units>:<latency>:<initiation>,<ID_OC_SPEC>:<OC_EX_SPEC>,<NAME>}
-gpgpu_perf_sim_memcpy                    1 # Fill the L2 cache on memcpy
-gpgpu_simple_dram_model                    0 # simple_dram_model with fixed latency and BW
-gpgpu_dram_scheduler                    1 # 0 = fifo, 1 = FR-FCFS (defaul)
-gpgpu_dram_partition_queues          32:32:32:32 # i2$:$2d:d2$:$2i
-l2_ideal                               0 # Use a ideal L2 cache that always hit
-gpgpu_cache:dl2     S:32:128:16,L:B:m:L:P,A:256:64,16:0,32 # unified banked L2 data cache config  {<nsets>:<bsize>:<assoc>,<rep>:<wr>:<alloc>:<wr_alloc>,<mshr>:<N>:<merge>,<mq>}
-gpgpu_cache:dl2_texture_only                    0 # L2 cache used for texture only
-gpgpu_n_mem                           12 # number of memory modules (e.g. memory controllers) in gpu
-gpgpu_n_sub_partition_per_mchannel                    2 # number of memory subpartition in each memory module
-gpgpu_n_mem_per_ctrlr                    1 # number of memory chips per memory controller
-gpgpu_memlatency_stat                   14 # track and display latency statistics 0x2 enables MC, 0x4 enables queue logs
-gpgpu_frfcfs_dram_sched_queue_size                   64 # 0 = unlimited (default); # entries per chip
-gpgpu_dram_return_queue_size                   64 # 0 = unlimited (default); # entries per chip
-gpgpu_dram_buswidth                    4 # default = 4 bytes (8 bytes per cycle at DDR)
-gpgpu_dram_burst_length                    8 # Burst length of each DRAM request (default = 4 data bus cycle)
-dram_data_command_freq_ratio                    4 # Frequency ratio between DRAM data bus and command bus (default = 2 times, i.e. DDR)
-gpgpu_dram_timing_opt nbk=16:CCD=2:RRD=8:RCD=16:RAS=37:RP=16:RC=52: CL=16:WL=6:CDLR=7:WR=16:nbkgrp=4:CCDL=4:RTPL=3 # DRAM timing parameters = {nbk:tCCD:tRRD:tRCD:tRAS:tRP:tRC:CL:WL:tCDLR:tWR:nbkgrp:tCCDL:tRTPL}
-gpgpu_l2_rop_latency                  120 # ROP queue latency (default 85)
-dram_latency                         100 # DRAM latency (default 30)
-dram_dual_bus_interface                    0 # dual_bus_interface (default = 0) 
-dram_bnk_indexing_policy                    0 # dram_bnk_indexing_policy (0 = normal indexing, 1 = Xoring with the higher bits) (Default = 0)
-dram_bnkgrp_indexing_policy                    1 # dram_bnkgrp_indexing_policy (0 = take higher bits, 1 = take lower bits) (Default = 0)
-dram_seperate_write_queue_enable                    0 # Seperate_Write_Queue_Enable
-dram_write_queue_size             32:28:16 # Write_Queue_Size
-dram_elimnate_rw_turnaround                    0 # elimnate_rw_turnaround i.e set tWTR and tRTW = 0
-icnt_flit_size                        40 # icnt_flit_size
-gpgpu_mem_addr_mapping dramid@8;00000000.00000000.00000000.00000000.0000RRRR.RRRRRRRR.RBBBCCCC.BCCSSSSS # mapping memory address to dram model {dramid@<start bit>;<memory address map>}
-gpgpu_mem_addr_test                    0 # run sweep test to check address mapping for aliased address
-gpgpu_mem_address_mask                    1 # 0 = old addressing mask, 1 = new addressing mask, 2 = new add. mask + flipped bank sel and chip sel bits
-gpgpu_memory_partition_indexing                    0 # 0 = no indexing, 1 = bitwise xoring, 2 = IPoly, 3 = custom indexing
-gpuwattch_xml_file         gpuwattch.xml # GPUWattch XML file
-power_simulation_enabled                    1 # Turn on power simulator (1=On, 0=Off)
-power_per_cycle_dump                    0 # Dump detailed power output each cycle
-power_trace_enabled                    0 # produce a file for the power trace (1=On, 0=Off)
-power_trace_zlevel                     6 # Compression level of the power trace output log (0=no comp, 9=highest)
-steady_power_levels_enabled                    0 # produce a file for the steady power levels (1=On, 0=Off)
-steady_state_definition                  8:4 # allowed deviation:number of samples
-gpgpu_max_cycle                        0 # terminates gpu simulation early (0 = no limit)
-gpgpu_max_insn                         0 # terminates gpu simulation early (0 = no limit)
-gpgpu_max_cta                          0 # terminates gpu simulation early (0 = no limit)
-gpgpu_max_completed_cta                    0 # terminates gpu simulation early (0 = no limit)
-gpgpu_runtime_stat                   500 # display runtime statistics such as dram utilization {<freq>:<flag>}
-liveness_message_freq                    1 # Minimum number of seconds between simulation liveness messages (0 = always print)
-gpgpu_compute_capability_major                    3 # Major compute capability version number
-gpgpu_compute_capability_minor                    5 # Minor compute capability version number
-gpgpu_flush_l1_cache                    1 # Flush L1 cache at the end of each kernel call
-gpgpu_flush_l2_cache                    0 # Flush L2 cache at the end of each kernel call
-gpgpu_deadlock_detect                    1 # Stop the simulation at deadlock (1=on (default), 0=off)
-gpgpu_ptx_instruction_classification                    0 # if enabled will classify ptx instruction types per kernel (Max 255 kernels now)
-gpgpu_ptx_sim_mode                     0 # Select between Performance (default) or Functional simulation (1)
-gpgpu_clock_domains 837.0:837.0:837.0:1502.0 # Clock Domain Frequencies in MhZ {<Core Clock>:<ICNT Clock>:<L2 Clock>:<DRAM Clock>}
-gpgpu_max_concurrent_kernel                    8 # maximum kernels that can run concurrently on GPU
-gpgpu_cflog_interval                    0 # Interval between each snapshot in control flow logger
-visualizer_enabled                     0 # Turn on visualizer output (1=On, 0=Off)
-visualizer_outputfile                 NULL # Specifies the output log file for visualizer
-visualizer_zlevel                      6 # Compression level of the visualizer output log (0=no comp, 9=highest)
-gpgpu_stack_size_limit                 1024 # GPU thread stack size
-gpgpu_heap_size_limit              8388608 # GPU malloc heap size 
-gpgpu_runtime_sync_depth_limit                    2 # GPU device runtime synchronize depth
-gpgpu_runtime_pending_launch_count_limit                 2048 # GPU device runtime pending launch count
-trace_enabled                          0 # Turn on traces
-trace_components                    none # comma seperated list of traces to enable. Complete list found in trace_streams.tup. Default none
-trace_sampling_core                    0 # The core which is printed using CORE_DPRINTF. Default 0
-trace_sampling_memory_partition                   -1 # The memory partition which is printed using MEMPART_DPRINTF. Default -1 (i.e. all)
-enable_ptx_file_line_stats                    1 # Turn on PTX source line statistic profiling. (1 = On)
-ptx_line_stats_filename gpgpu_inst_stats.txt # Output file for PTX source line statistics.
-gpgpu_kernel_launch_latency                    0 # Kernel launch latency in cycles. Default: 0
-gpgpu_cdp_enabled                      0 # Turn on CDP
-gpgpu_TB_launch_latency                    0 # thread block launch latency in cycles. Default: 0
DRAM Timing Options:
nbk                                    16 # number of banks
CCD                                     2 # column to column delay
RRD                                     8 # minimal delay between activation of rows in different banks
RCD                                    16 # row to column delay
RAS                                    37 # time needed to activate row
RP                                     16 # time needed to precharge (deactivate) row
RC                                     52 # row cycle time
CDLR                                    7 # switching from write to read (changes tWTR)
WR                                     16 # last data-in to row precharge
CL                                     16 # CAS latency
WL                                      6 # Write latency
nbkgrp                                  4 # number of bank groups
CCDL                                    4 # column to column delay between accesses to different bank groups
RTPL                                    3 # read to precharge delay between accesses to different bank groups
Total number of memory sub partition = 24
addr_dec_mask[CHIP]  = 0000000000000000 	high:64 low:0
addr_dec_mask[BK]    = 0000000000007080 	high:15 low:7
addr_dec_mask[ROW]   = 000000000fff8000 	high:28 low:15
addr_dec_mask[COL]   = 0000000000000f7f 	high:12 low:0
addr_dec_mask[BURST] = 000000000000001f 	high:5 low:0
sub_partition_id_mask = 0000000000000080
GPGPU-Sim uArch: clock freqs: 837000000.000000:837000000.000000:837000000.000000:1502000000.000000
GPGPU-Sim uArch: clock periods: 0.00000000119474313023:0.00000000119474313023:0.00000000119474313023:0.00000000066577896138
*** Initializing Memory Statistics ***
GPGPU-Sim uArch: interconnect node map (shaderID+MemID to icntID)
GPGPU-Sim uArch: Memory nodes ID start from index: 14
GPGPU-Sim uArch:    0   1   2   3   4   5
GPGPU-Sim uArch:    6   7   8   9  10  11
GPGPU-Sim uArch:   12  13  14  15  16  17
GPGPU-Sim uArch:   18  19  20  21  22  23
GPGPU-Sim uArch:   24  25  26  27  28  29
GPGPU-Sim uArch:   30  31  32  33  34  35
GPGPU-Sim uArch:   36  37
GPGPU-Sim uArch: interconnect node reverse map (icntID to shaderID+MemID)
GPGPU-Sim uArch: Memory nodes start from ID: 14
GPGPU-Sim uArch:    0   1   2   3   4   5
GPGPU-Sim uArch:    6   7   8   9  10  11
GPGPU-Sim uArch:   12  13  14  15  16  17
GPGPU-Sim uArch:   18  19  20  21  22  23
GPGPU-Sim uArch:   24  25  26  27  28  29
GPGPU-Sim uArch:   30  31  32  33  34  35
GPGPU-Sim uArch:   36  37
0effdcc785130f4091bec83b707f407a  /home/ishan/COA/Lab4/gpu-rodinia/cuda/pathfinder/a.out
Extracting PTX file and ptxas options    1: a.1.sm_52.ptx -arch=sm_52
GPGPU-Sim uArch: performance model initialization complete.
self exe links to: /home/ishan/COA/Lab4/gpu-rodinia/cuda/pathfinder/a.out
self exe links to: /home/ishan/COA/Lab4/gpu-rodinia/cuda/pathfinder/a.out
11.0
GPGPU-Sim PTX: __cudaRegisterFatBinary, fat_cubin_handle = 1, filename=default
self exe links to: /home/ishan/COA/Lab4/gpu-rodinia/cuda/pathfinder/a.out
Running md5sum using "md5sum /home/ishan/COA/Lab4/gpu-rodinia/cuda/pathfinder/a.out "
self exe links to: /home/ishan/COA/Lab4/gpu-rodinia/cuda/pathfinder/a.out
Extracting specific PTX file named a.1.sm_52.ptx 
GPGPU-Sim PTX: __cudaRegisterFunction _Z14dynproc_kerneliPiS_S_iiii : hostFun 0x0x5574c1d09ba4, fat_cubin_handle = 1
GPGPU-Sim PTX: Parsing a.1.sm_52.ptx
GPGPU-Sim PTX: allocating shared region for "_ZZ14dynproc_kerneliPiS_S_iiiiE4prev" from 0x0 to 0x400 (shared memory space)
GPGPU-Sim PTX: allocating shared region for "_ZZ14dynproc_kerneliPiS_S_iiiiE6result" from 0x400 to 0x800 (shared memory space)
GPGPU-Sim PTX: instruction assembly for function '_Z14dynproc_kerneliPiS_S_iiii'...   done.
GPGPU-Sim PTX: finished parsing EMBEDDED .ptx file a.1.sm_52.ptx
GPGPU-Sim PTX: loading globals with explicit initializers... 
GPGPU-Sim PTX: finished loading globals (0 bytes total).
GPGPU-Sim PTX: loading constants with explicit initializers...  done.
GPGPU-Sim PTX: Loading PTXInfo from a.1.sm_52.ptx
GPGPU-Sim PTX: Kernel '_Z14dynproc_kerneliPiS_S_iiii' : regs=18, lmem=0, smem=2048, cmem=368
pyramidHeight: 20
gridSize: [10000]
border:[20]
blockSize: 256
blockGrid:[47]
targetBlock:[216]
GPGPU-Sim PTX: Setting up arguments for 4 bytes starting at 0x7fff7e2a53ec..
GPGPU-Sim PTX: Setting up arguments for 8 bytes starting at 0x7fff7e2a53e0..
GPGPU-Sim PTX: Setting up arguments for 8 bytes starting at 0x7fff7e2a53d8..
GPGPU-Sim PTX: Setting up arguments for 8 bytes starting at 0x7fff7e2a53d0..
GPGPU-Sim PTX: Setting up arguments for 4 bytes starting at 0x7fff7e2a53e8..
GPGPU-Sim PTX: Setting up arguments for 4 bytes starting at 0x7fff7e2a53cc..
GPGPU-Sim PTX: Setting up arguments for 4 bytes starting at 0x7fff7e2a5480..
GPGPU-Sim PTX: Setting up arguments for 4 bytes starting at 0x7fff7e2a5488..

GPGPU-Sim PTX: cudaLaunch for 0x0x5574c1d09ba4 (mode=performance simulation) on stream 0
GPGPU-Sim PTX: finding reconvergence points for '_Z14dynproc_kerneliPiS_S_iiii'...
GPGPU-Sim PTX: Finding dominators for '_Z14dynproc_kerneliPiS_S_iiii'...
GPGPU-Sim PTX: Finding immediate dominators for '_Z14dynproc_kerneliPiS_S_iiii'...
GPGPU-Sim PTX: Finding postdominators for '_Z14dynproc_kerneliPiS_S_iiii'...
GPGPU-Sim PTX: Finding immediate postdominators for '_Z14dynproc_kerneliPiS_S_iiii'...
GPGPU-Sim PTX: pre-decoding instructions for '_Z14dynproc_kerneliPiS_S_iiii'...
GPGPU-Sim PTX: reconvergence points for _Z14dynproc_kerneliPiS_S_iiii...
GPGPU-Sim PTX:  1 (potential) branch divergence @  PC=0x0c0 (a.1.sm_52.ptx:61) @!%p3 bra BB0_2;
GPGPU-Sim PTX:    immediate post dominator      @  PC=0x110 (a.1.sm_52.ptx:75) bar.sync 0;
GPGPU-Sim PTX:  2 (potential) branch divergence @  PC=0x0c8 (a.1.sm_52.ptx:62) bra.uni BB0_1;
GPGPU-Sim PTX:    immediate post dominator      @  PC=0x0d0 (a.1.sm_52.ptx:65) cvta.to.global.u64 %rd4, %rd2;
GPGPU-Sim PTX:  3 (potential) branch divergence @  PC=0x120 (a.1.sm_52.ptx:77) @%p4 bra BB0_10;
GPGPU-Sim PTX:    immediate post dominator      @  PC=0x338 (a.1.sm_52.ptx:157) and.b16 %rs6, %rs8, 255;
GPGPU-Sim PTX:  4 (potential) branch divergence @  PC=0x208 (a.1.sm_52.ptx:109) @!%p12 bra BB0_6;
GPGPU-Sim PTX:    immediate post dominator      @  PC=0x2b8 (a.1.sm_52.ptx:135) bar.sync 0;
GPGPU-Sim PTX:  5 (potential) branch divergence @  PC=0x210 (a.1.sm_52.ptx:110) bra.uni BB0_5;
GPGPU-Sim PTX:    immediate post dominator      @  PC=0x218 (a.1.sm_52.ptx:113) ld.shared.u32 %r70, [%r2];
GPGPU-Sim PTX:  6 (potential) branch divergence @  PC=0x2c8 (a.1.sm_52.ptx:137) @%p15 bra BB0_10;
GPGPU-Sim PTX:    immediate post dominator      @  PC=0x338 (a.1.sm_52.ptx:157) and.b16 %rs6, %rs8, 255;
GPGPU-Sim PTX:  7 (potential) branch divergence @  PC=0x2d8 (a.1.sm_52.ptx:140) @%p16 bra BB0_9;
GPGPU-Sim PTX:    immediate post dominator      @  PC=0x310 (a.1.sm_52.ptx:150) bar.sync 0;
GPGPU-Sim PTX:  8 (potential) branch divergence @  PC=0x330 (a.1.sm_52.ptx:154) @%p17 bra BB0_4;
GPGPU-Sim PTX:    immediate post dominator      @  PC=0x338 (a.1.sm_52.ptx:157) and.b16 %rs6, %rs8, 255;
GPGPU-Sim PTX:  9 (potential) branch divergence @  PC=0x348 (a.1.sm_52.ptx:159) @%p18 bra BB0_12;
GPGPU-Sim PTX:    immediate post dominator      @  PC=0x390 (a.1.sm_52.ptx:171) ret;
GPGPU-Sim PTX: ... end of reconvergence points for _Z14dynproc_kerneliPiS_S_iiii
GPGPU-Sim PTX: ... done pre-decoding instructions for '_Z14dynproc_kerneliPiS_S_iiii'.
GPGPU-Sim PTX: pushing kernel '_Z14dynproc_kerneliPiS_S_iiii' to stream 0, gridDim= (47,1,1) blockDim = (256,1,1) 
GPGPU-Sim uArch: Shader 0 bind to kernel 1 '_Z14dynproc_kerneliPiS_S_iiii'
GPGPU-Sim uArch: CTA/core = 8, limited by: threads
GPGPU-Sim uArch: Shader 1 bind to kernel 1 '_Z14dynproc_kerneliPiS_S_iiii'
GPGPU-Sim uArch: Shader 2 bind to kernel 1 '_Z14dynproc_kerneliPiS_S_iiii'
GPGPU-Sim uArch: Shader 3 bind to kernel 1 '_Z14dynproc_kerneliPiS_S_iiii'
GPGPU-Sim uArch: Shader 4 bind to kernel 1 '_Z14dynproc_kerneliPiS_S_iiii'
GPGPU-Sim uArch: Shader 5 bind to kernel 1 '_Z14dynproc_kerneliPiS_S_iiii'
GPGPU-Sim uArch: Shader 6 bind to kernel 1 '_Z14dynproc_kerneliPiS_S_iiii'
GPGPU-Sim uArch: Shader 7 bind to kernel 1 '_Z14dynproc_kerneliPiS_S_iiii'
GPGPU-Sim uArch: Shader 8 bind to kernel 1 '_Z14dynproc_kerneliPiS_S_iiii'
GPGPU-Sim uArch: Shader 9 bind to kernel 1 '_Z14dynproc_kerneliPiS_S_iiii'
GPGPU-Sim uArch: Shader 10 bind to kernel 1 '_Z14dynproc_kerneliPiS_S_iiii'
GPGPU-Sim uArch: Shader 11 bind to kernel 1 '_Z14dynproc_kerneliPiS_S_iiii'
GPGPU-Sim uArch: Shader 12 bind to kernel 1 '_Z14dynproc_kerneliPiS_S_iiii'
GPGPU-Sim uArch: Shader 13 bind to kernel 1 '_Z14dynproc_kerneliPiS_S_iiii'
Destroy streams for kernel 1: size 0
kernel_name = _Z14dynproc_kerneliPiS_S_iiii 
kernel_launch_uid = 1 
gpu_sim_cycle = 15927
gpu_sim_insn = 12710760
gpu_ipc =     798.0637
gpu_tot_sim_cycle = 15927
gpu_tot_sim_insn = 12710760
gpu_tot_ipc =     798.0637
gpu_tot_issued_cta = 47
gpu_occupancy = 41.7934% 
gpu_tot_occupancy = 41.7934% 
max_total_param_size = 0
gpu_stall_dramfull = 0
gpu_stall_icnt2sh    = 0
partiton_level_parallism =       2.3900
partiton_level_parallism_total  =       2.3900
partiton_level_parallism_util =       3.1940
partiton_level_parallism_util_total  =       3.1940
L2_BW  =      64.6031 GB/Sec
L2_BW_total  =      64.6031 GB/Sec
gpu_total_sim_rate=508430

========= Core cache stats =========
L1I_cache:
	L1I_total_cache_accesses = 225037
	L1I_total_cache_misses = 2791
	L1I_total_cache_miss_rate = 0.0124
	L1I_total_cache_pending_hits = 0
	L1I_total_cache_reservation_fails = 0
L1D_cache:
	L1D_cache_core[0]: Access = 0, Miss = 0, Miss_rate = -nan, Pending_hits = 0, Reservation_fails = 0
	L1D_cache_core[1]: Access = 0, Miss = 0, Miss_rate = -nan, Pending_hits = 0, Reservation_fails = 0
	L1D_cache_core[2]: Access = 0, Miss = 0, Miss_rate = -nan, Pending_hits = 0, Reservation_fails = 0
	L1D_cache_core[3]: Access = 0, Miss = 0, Miss_rate = -nan, Pending_hits = 0, Reservation_fails = 0
	L1D_cache_core[4]: Access = 0, Miss = 0, Miss_rate = -nan, Pending_hits = 0, Reservation_fails = 0
	L1D_cache_core[5]: Access = 0, Miss = 0, Miss_rate = -nan, Pending_hits = 0, Reservation_fails = 0
	L1D_cache_core[6]: Access = 0, Miss = 0, Miss_rate = -nan, Pending_hits = 0, Reservation_fails = 0
	L1D_cache_core[7]: Access = 0, Miss = 0, Miss_rate = -nan, Pending_hits = 0, Reservation_fails = 0
	L1D_cache_core[8]: Access = 0, Miss = 0, Miss_rate = -nan, Pending_hits = 0, Reservation_fails = 0
	L1D_cache_core[9]: Access = 0, Miss = 0, Miss_rate = -nan, Pending_hits = 0, Reservation_fails = 0
	L1D_cache_core[10]: Access = 0, Miss = 0, Miss_rate = -nan, Pending_hits = 0, Reservation_fails = 0
	L1D_cache_core[11]: Access = 0, Miss = 0, Miss_rate = -nan, Pending_hits = 0, Reservation_fails = 0
	L1D_cache_core[12]: Access = 0, Miss = 0, Miss_rate = -nan, Pending_hits = 0, Reservation_fails = 0
	L1D_cache_core[13]: Access = 0, Miss = 0, Miss_rate = -nan, Pending_hits = 0, Reservation_fails = 0
	L1D_total_cache_accesses = 0
	L1D_total_cache_misses = 0
	L1D_total_cache_pending_hits = 0
	L1D_total_cache_reservation_fails = 0
	L1D_cache_data_port_util = 0.000
	L1D_cache_fill_port_util = 0.000
L1C_cache:
	L1C_total_cache_accesses = 2632
	L1C_total_cache_misses = 896
	L1C_total_cache_miss_rate = 0.3404
	L1C_total_cache_pending_hits = 0
	L1C_total_cache_reservation_fails = 3052
L1T_cache:
	L1T_total_cache_accesses = 0
	L1T_total_cache_misses = 0
	L1T_total_cache_pending_hits = 0
	L1T_total_cache_reservation_fails = 0

Total_core_cache_stats:
	Total_core_cache_stats_breakdown[GLOBAL_ACC_R][HIT] = 0
	Total_core_cache_stats_breakdown[GLOBAL_ACC_R][HIT_RESERVED] = 0
	Total_core_cache_stats_breakdown[GLOBAL_ACC_R][MISS] = 0
	Total_core_cache_stats_breakdown[GLOBAL_ACC_R][RESERVATION_FAIL] = 0
	Total_core_cache_stats_breakdown[GLOBAL_ACC_R][SECTOR_MISS] = 0
	Total_core_cache_stats_breakdown[LOCAL_ACC_R][HIT] = 0
	Total_core_cache_stats_breakdown[LOCAL_ACC_R][HIT_RESERVED] = 0
	Total_core_cache_stats_breakdown[LOCAL_ACC_R][MISS] = 0
	Total_core_cache_stats_breakdown[LOCAL_ACC_R][RESERVATION_FAIL] = 0
	Total_core_cache_stats_breakdown[LOCAL_ACC_R][SECTOR_MISS] = 0
	Total_core_cache_stats_breakdown[CONST_ACC_R][HIT] = 1736
	Total_core_cache_stats_breakdown[CONST_ACC_R][HIT_RESERVED] = 0
	Total_core_cache_stats_breakdown[CONST_ACC_R][MISS] = 896
	Total_core_cache_stats_breakdown[CONST_ACC_R][RESERVATION_FAIL] = 3052
	Total_core_cache_stats_breakdown[CONST_ACC_R][SECTOR_MISS] = 0
	Total_core_cache_stats_breakdown[TEXTURE_ACC_R][HIT] = 0
	Total_core_cache_stats_breakdown[TEXTURE_ACC_R][HIT_RESERVED] = 0
	Total_core_cache_stats_breakdown[TEXTURE_ACC_R][MISS] = 0
	Total_core_cache_stats_breakdown[TEXTURE_ACC_R][RESERVATION_FAIL] = 0
	Total_core_cache_stats_breakdown[TEXTURE_ACC_R][SECTOR_MISS] = 0
	Total_core_cache_stats_breakdown[GLOBAL_ACC_W][HIT] = 0
	Total_core_cache_stats_breakdown[GLOBAL_ACC_W][HIT_RESERVED] = 0
	Total_core_cache_stats_breakdown[GLOBAL_ACC_W][MISS] = 0
	Total_core_cache_stats_breakdown[GLOBAL_ACC_W][RESERVATION_FAIL] = 0
	Total_core_cache_stats_breakdown[GLOBAL_ACC_W][SECTOR_MISS] = 0
	Total_core_cache_stats_breakdown[LOCAL_ACC_W][HIT] = 0
	Total_core_cache_stats_breakdown[LOCAL_ACC_W][HIT_RESERVED] = 0
	Total_core_cache_stats_breakdown[LOCAL_ACC_W][MISS] = 0
	Total_core_cache_stats_breakdown[LOCAL_ACC_W][RESERVATION_FAIL] = 0
	Total_core_cache_stats_breakdown[LOCAL_ACC_W][SECTOR_MISS] = 0
	Total_core_cache_stats_breakdown[L1_WRBK_ACC][HIT] = 0
	Total_core_cache_stats_breakdown[L1_WRBK_ACC][HIT_RESERVED] = 0
	Total_core_cache_stats_breakdown[L1_WRBK_ACC][MISS] = 0
	Total_core_cache_stats_breakdown[L1_WRBK_ACC][RESERVATION_FAIL] = 0
	Total_core_cache_stats_breakdown[L1_WRBK_ACC][SECTOR_MISS] = 0
	Total_core_cache_stats_breakdown[L2_WRBK_ACC][HIT] = 0
	Total_core_cache_stats_breakdown[L2_WRBK_ACC][HIT_RESERVED] = 0
	Total_core_cache_stats_breakdown[L2_WRBK_ACC][MISS] = 0
	Total_core_cache_stats_breakdown[L2_WRBK_ACC][RESERVATION_FAIL] = 0
	Total_core_cache_stats_breakdown[L2_WRBK_ACC][SECTOR_MISS] = 0
	Total_core_cache_stats_breakdown[INST_ACC_R][HIT] = 222246
	Total_core_cache_stats_breakdown[INST_ACC_R][HIT_RESERVED] = 0
	Total_core_cache_stats_breakdown[INST_ACC_R][MISS] = 2791
	Total_core_cache_stats_breakdown[INST_ACC_R][RESERVATION_FAIL] = 0
	Total_core_cache_stats_breakdown[INST_ACC_R][SECTOR_MISS] = 0
	Total_core_cache_stats_breakdown[L1_WR_ALLOC_R][HIT] = 0
	Total_core_cache_stats_breakdown[L1_WR_ALLOC_R][HIT_RESERVED] = 0
	Total_core_cache_stats_breakdown[L1_WR_ALLOC_R][MISS] = 0
	Total_core_cache_stats_breakdown[L1_WR_ALLOC_R][RESERVATION_FAIL] = 0
	Total_core_cache_stats_breakdown[L1_WR_ALLOC_R][SECTOR_MISS] = 0
	Total_core_cache_stats_breakdown[L2_WR_ALLOC_R][HIT] = 0
	Total_core_cache_stats_breakdown[L2_WR_ALLOC_R][HIT_RESERVED] = 0
	Total_core_cache_stats_breakdown[L2_WR_ALLOC_R][MISS] = 0
	Total_core_cache_stats_breakdown[L2_WR_ALLOC_R][RESERVATION_FAIL] = 0
	Total_core_cache_stats_breakdown[L2_WR_ALLOC_R][SECTOR_MISS] = 0
	Total_core_cache_stats_breakdown[CONST_ACC_R][TOTAL_ACCESS] = 2632
	Total_core_cache_stats_breakdown[INST_ACC_R][TOTAL_ACCESS] = 225037

Total_core_cache_fail_stats:
	Total_core_cache_fail_stats_breakdown[CONST_ACC_R][MSHR_MERGE_ENRTY_FAIL] = 3052
ctas_completed 47, Shader 0 warp_id issue ditsribution:
warp_id:
0, 1, 2, 3, 4, 5, 6, 7, 8, 9, 10, 11, 12, 13, 14, 15, 16, 17, 18, 19, 20, 21, 22, 23, 24, 25, 26, 27, 28, 29, 30, 31, 
distro:
1378, 1380, 1381, 1384, 1377, 1372, 1382, 1384, 1365, 1367, 1373, 1373, 1371, 1373, 1372, 1371, 1374, 1373, 1374, 1373, 1368, 1380, 1377, 1366, 1379, 1374, 1378, 1371, 1370, 1369, 1377, 1380, 
gpgpu_n_tot_thrd_icount = 13941152
gpgpu_n_tot_w_icount = 435661
gpgpu_n_stall_shd_mem = 32830
gpgpu_n_mem_read_local = 0
gpgpu_n_mem_write_local = 0
gpgpu_n_mem_read_global = 36366
gpgpu_n_mem_write_global = 1574
gpgpu_n_mem_texture = 0
gpgpu_n_mem_const = 14
gpgpu_n_load_insn  = 229320
gpgpu_n_store_insn = 10000
gpgpu_n_shmem_insn = 1306720
gpgpu_n_sstarr_insn = 0
gpgpu_n_tex_insn = 0
gpgpu_n_const_mem_insn = 0
gpgpu_n_param_mem_insn = 84224
gpgpu_n_shmem_bkconflict = 0
gpgpu_n_cache_bkconflict = 0
gpgpu_n_intrawarp_mshr_merge = 0
gpgpu_n_cmem_portconflict = 3052
gpgpu_stall_shd_mem[c_mem][resource_stall] = 3052
gpgpu_stall_shd_mem[s_mem][bk_conf] = 0
gpgpu_stall_shd_mem[gl_mem][resource_stall] = 0
gpgpu_stall_shd_mem[gl_mem][coal_stall] = 29778
gpgpu_stall_shd_mem[gl_mem][data_port_stall] = 0
gpu_reg_bank_conflict_stalls = 0
Warp Occupancy Distribution:
Stall:70290	W0_Idle:104597	W0_Scoreboard:316254	W1:0	W2:0	W3:0	W4:0	W5:0	W6:0	W7:0	W8:0	W9:0	W10:0	W11:0	W12:3219	W13:2484	W14:2484	W15:2484	W16:2484	W17:2484	W18:2484	W19:2484	W20:3035	W21:2484	W22:2484	W23:2484	W24:2484	W25:2484	W26:2484	W27:2484	W28:2484	W29:2484	W30:2484	W31:2484	W32:384695
single_issue_nums: WS0:69353	WS1:69177	WS2:69169	WS3:68990	
dual_issue_nums: WS0:19850	WS1:19938	WS2:19942	WS3:19756	
traffic_breakdown_coretomem[CONST_ACC_R] = 112 {8:14,}
traffic_breakdown_coretomem[GLOBAL_ACC_R] = 290928 {8:36366,}
traffic_breakdown_coretomem[GLOBAL_ACC_W] = 62960 {40:1574,}
traffic_breakdown_coretomem[INST_ACC_R] = 896 {8:112,}
traffic_breakdown_memtocore[CONST_ACC_R] = 1120 {40:28,}
traffic_breakdown_memtocore[GLOBAL_ACC_R] = 1454640 {40:36366,}
traffic_breakdown_memtocore[GLOBAL_ACC_W] = 12592 {8:1574,}
traffic_breakdown_memtocore[INST_ACC_R] = 17920 {40:448,}
maxmflatency = 397 
max_icnt2mem_latency = 64 
maxmrqlatency = 43 
max_icnt2sh_latency = 95 
averagemflatency = 248 
avg_icnt2mem_latency = 11 
avg_mrq_latency = 1 
avg_icnt2sh_latency = 15 
mrq_lat_table:20889 	2783 	1173 	805 	591 	43 	0 	0 	0 	0 	0 	0 	0 	0 	0 	0 	0 	0 	0 	0 	0 	0 	0 	0 	0 	0 	0 	0 	0 	0 	0 	0 	
dq_lat_table:0 	0 	0 	0 	0 	0 	0 	0 	0 	0 	0 	0 	0 	0 	0 	0 	0 	0 	0 	0 	0 	0 	0 	0 	0 	0 	0 	0 	0 	0 	0 	0 	
mf_lat_table:0 	0 	0 	0 	0 	0 	0 	19903 	18065 	0 	0 	0 	0 	0 	0 	0 	0 	0 	0 	0 	0 	0 	0 	0 	0 	0 	0 	0 	0 	0 	0 	0 	
icnt2mem_lat_table:0 	0 	19571 	13706 	2710 	2076 	3 	0 	0 	0 	0 	0 	0 	0 	0 	0 	0 	0 	0 	0 	0 	0 	0 	0 	
icnt2sh_lat_table:0 	0 	9491 	15615 	10306 	2389 	167 	0 	0 	0 	0 	0 	0 	0 	0 	0 	0 	0 	0 	0 	0 	0 	0 	0 	
mf_lat_pw_table:0 	0 	0 	0 	0 	0 	0 	23 	6 	0 	0 	0 	0 	0 	0 	0 	0 	0 	0 	0 	0 	0 	0 	0 	0 	0 	0 	0 	0 	0 	0 	0 	
maximum concurrent accesses to same row:
dram[0]:        64        64        64        64        64        64        64        64        64        64        64        64        64        64        64        64 
dram[1]:        64        64        64        64        64        64        64        64        64        64        64        64        64        64        64        64 
dram[2]:        64        64        64        64        64        64        64        64        64        64        64        64        64        64        64        64 
dram[3]:        64        64        64        64        64        64        64        64        64        64        64        64        64        64        64        64 
dram[4]:        64        64        64        64        64        64        64        64        64        64        64        64        64        64        64        64 
dram[5]:        64        64        64        64        64        64        64        64        64        64        64        64        64        64        64        64 
dram[6]:        64        64        64        64        64        64        64        64        64        64        64        64        64        64        64        64 
dram[7]:        64        64        64        64        64        64        64        64        64        64        64        64        64        64        64        64 
dram[8]:        64        64        64        64        64        64        64        64        64        64        64        64        64        64        64        64 
dram[9]:        64        64        64        64        64        64        64        64        64        64        64        64        64        64        64        64 
dram[10]:        64        64        64        64        64        64        64        64        64        64        64        64        64        64        64        64 
dram[11]:        64        64        64        64        64        64        64        64        64        64        64        64        64        64        64        64 
maximum service time to same row:
dram[0]:      6738      6039      8389      8388      8921      8965      9578      9573     10148     10177     11201     11189     11768     11768     12328     12325 
dram[1]:      5991      5720      8384      8406      8990      8983      9586      9601     10163     10155     11189     11280     11750     11849     12343     12355 
dram[2]:      5472      5470      8401      8381      8975      8972      9583      9583     10154     10172     11274     11272     11867     11846     12420     12418 
dram[3]:      5473      7569      8378      8334      8997      9002      9797      9795     10401     10397     11293     11288     11841     11858     12423     12430 
dram[4]:      7588      7581      8333      8328      9145      9116      9823      9815     10406     10413     11223     11220     11854     11865     12409     12406 
dram[5]:      7580      7612      8326      8347      9116      9121      9693      9696     10421     10418     11155     11152     11993     11990     12567     12566 
dram[6]:      7610      7599      8296      8294      9131      8863      9683      9678     10338     10325     11174     11166     11930     11944     12519     12518 
dram[7]:      7595      7594      8318      8291      8897      8897      9676      9688     10306     10299     11160     11157     11939     11737     12499     12498 
dram[8]:      7590      7595      8289      8299      8871      8868      9702      9701     10296     10313     11150     11145     11735     11739     12308     12303 
dram[9]:      7601      7340      8306      8304      8873      8878      9727      9585     10310     10216     11160     11165     11756     11749     12299     12326 
dram[10]:      7335      7330      8311      8331      8887      8928      9603      9614     10188     10187     11155     11150     11746     11751     12318     12313 
dram[11]:      7341      7350      8330      8335      8926      8923      9593      9589     10170     10149     11156     11204     11754     11773     12309     12333 
average row accesses per activate:
dram[0]: 47.000000 46.000000 72.000000 72.000000 128.000000 128.000000 128.000000 128.000000 128.000000 128.000000 128.000000 128.000000 128.000000 128.000000 128.000000 128.000000 
dram[1]: 46.000000 61.333332 72.000000 72.000000 128.000000 128.000000 128.000000 128.000000 128.000000 128.000000 128.000000 128.000000 128.000000 128.000000 128.000000 128.000000 
dram[2]: 61.333332 61.333332 74.000000 74.000000 128.000000 128.000000 128.000000 128.000000 128.000000 128.000000 128.000000 128.000000 128.000000 128.000000 128.000000 128.000000 
dram[3]: 61.333332 46.000000 74.000000 74.000000 128.000000 128.000000 128.000000 128.000000 128.000000 128.000000 128.000000 128.000000 128.000000 128.000000 128.000000 128.000000 
dram[4]: 90.000000 90.000000 74.000000 74.000000 128.000000 128.000000 128.000000 128.000000 128.000000 128.000000 128.000000 128.000000 128.000000 128.000000 128.000000 128.000000 
dram[5]: 90.000000 90.000000 74.000000 74.000000 128.000000 128.000000 128.000000 128.000000 128.000000 128.000000 128.000000 128.000000 128.000000 128.000000 128.000000 128.000000 
dram[6]: 90.000000 90.000000 74.000000 74.000000 128.000000 128.000000 128.000000 128.000000 128.000000 128.000000 128.000000 128.000000 128.000000 128.000000 128.000000 128.000000 
dram[7]: 90.000000 90.000000 72.000000 72.000000 128.000000 128.000000 128.000000 128.000000 128.000000 128.000000 128.000000 128.000000 128.000000 128.000000 128.000000 128.000000 
dram[8]: 90.000000 90.000000 72.000000 72.000000 128.000000 128.000000 128.000000 128.000000 128.000000 128.000000 128.000000 128.000000 128.000000 128.000000 128.000000 128.000000 
dram[9]: 90.000000 90.000000 72.000000 72.000000 128.000000 128.000000 128.000000 128.000000 128.000000 128.000000 128.000000 128.000000 128.000000 128.000000 128.000000 128.000000 
dram[10]: 90.000000 90.000000 72.000000 72.000000 128.000000 128.000000 128.000000 128.000000 128.000000 128.000000 128.000000 128.000000 128.000000 128.000000 128.000000 128.000000 
dram[11]: 90.000000 90.000000 72.000000 72.000000 128.000000 128.000000 128.000000 128.000000 128.000000 128.000000 128.000000 128.000000 128.000000 128.000000 128.000000 128.000000 
average row locality = 26284/252 = 104.301590
number of total memory accesses made:
dram[0]:         0         0         0         0         0         0         0         0         0         0         0         0         0         0         0         0 
dram[1]:         0         0         0         0         0         0         0         0         0         0         0         0         0         0         0         0 
dram[2]:         0         0         0         0         0         0         0         0         0         0         0         0         0         0         0         0 
dram[3]:         0         0         0         0         0         0         0         0         0         0         0         0         0         0         0         0 
dram[4]:         0         0         0         0         0         0         0         0         0         0         0         0         0         0         0         0 
dram[5]:         0         0         0         0         0         0         0         0         0         0         0         0         0         0         0         0 
dram[6]:         0         0         0         0         0         0         0         0         0         0         0         0         0         0         0         0 
dram[7]:         0         0         0         0         0         0         0         0         0         0         0         0         0         0         0         0 
dram[8]:         0         0         0         0         0         0         0         0         0         0         0         0         0         0         0         0 
dram[9]:         0         0         0         0         0         0         0         0         0         0         0         0         0         0         0         0 
dram[10]:         0         0         0         0         0         0         0         0         0         0         0         0         0         0         0         0 
dram[11]:         0         0         0         0         0         0         0         0         0         0         0         0         0         0         0         0 
total accesses: 0
min_bank_accesses = 0!
min_chip_accesses = 0!
number of total read accesses:
dram[0]:       188       184       144       144       128       128       128       128       128       128       128       128       128       128       128       128 
dram[1]:       184       184       144       144       128       128       128       128       128       128       128       128       128       128       128       128 
dram[2]:       184       184       148       148       128       128       128       128       128       128       128       128       128       128       128       128 
dram[3]:       184       184       148       148       128       128       128       128       128       128       128       128       128       128       128       128 
dram[4]:       180       180       148       148       128       128       128       128       128       128       128       128       128       128       128       128 
dram[5]:       180       180       148       148       128       128       128       128       128       128       128       128       128       128       128       128 
dram[6]:       180       180       148       148       128       128       128       128       128       128       128       128       128       128       128       128 
dram[7]:       180       180       144       144       128       128       128       128       128       128       128       128       128       128       128       128 
dram[8]:       180       180       144       144       128       128       128       128       128       128       128       128       128       128       128       128 
dram[9]:       180       180       144       144       128       128       128       128       128       128       128       128       128       128       128       128 
dram[10]:       180       180       144       144       128       128       128       128       128       128       128       128       128       128       128       128 
dram[11]:       180       180       144       144       128       128       128       128       128       128       128       128       128       128       128       128 
total dram reads = 26284
bank skew: 188/128 = 1.47
chip skew: 2200/2184 = 1.01
number of total write accesses:
dram[0]:         0         0         0         0         0         0         0         0         0         0         0         0         0         0         0         0 
dram[1]:         0         0         0         0         0         0         0         0         0         0         0         0         0         0         0         0 
dram[2]:         0         0         0         0         0         0         0         0         0         0         0         0         0         0         0         0 
dram[3]:         0         0         0         0         0         0         0         0         0         0         0         0         0         0         0         0 
dram[4]:         0         0         0         0         0         0         0         0         0         0         0         0         0         0         0         0 
dram[5]:         0         0         0         0         0         0         0         0         0         0         0         0         0         0         0         0 
dram[6]:         0         0         0         0         0         0         0         0         0         0         0         0         0         0         0         0 
dram[7]:         0         0         0         0         0         0         0         0         0         0         0         0         0         0         0         0 
dram[8]:         0         0         0         0         0         0         0         0         0         0         0         0         0         0         0         0 
dram[9]:         0         0         0         0         0         0         0         0         0         0         0         0         0         0         0         0 
dram[10]:         0         0         0         0         0         0         0         0         0         0         0         0         0         0         0         0 
dram[11]:         0         0         0         0         0         0         0         0         0         0         0         0         0         0         0         0 
total dram writes = 0
min_bank_accesses = 0!
min_chip_accesses = 0!
average mf latency per bank:
dram[0]:        396       356       400       400       389       390       360       352       339       343       337       349       339       340       335       336
dram[1]:        394       362       395       393       375       359       343       353       343       338       343       338       341       344       340       343
dram[2]:        367       371       391       395       360       357       356       344       336       341       343       338       341       341       340       338
dram[3]:        364       357       390       392       358       374       358       357       341       341       339       340       341       342       339       341
dram[4]:        371       379       389       391       372       355       347       340       348       335       335       340       344       336       335       337
dram[5]:        364       363       393       397       373       365       358       353       326       338       333       334       338       335       350       330
dram[6]:        382       380       389       386       353       372       345       357       342       341       340       338       336       340       327       336
dram[7]:        367       377       388       392       369       367       354       347       345       344       331       337       338       334       339       334
dram[8]:        368       360       394       404       366       380       345       359       339       333       340       334       338       337       343       345
dram[9]:        369       366       400       398       369       372       360       347       338       346       339       342       330       333       336       338
dram[10]:        372       371       392       393       371       368       357       354       342       335       335       336       346       346       344       339
dram[11]:        372       376       403       415       372       375       345       353       341       335       335       337       337       339       342       338
maximum mf latency per bank:
dram[0]:        346       316       337       363       351       397       309       300       275       290       286       283       295       287       291       295
dram[1]:        373       323       343       326       348       326       295       295       287       284       284       291       289       295       291       289
dram[2]:        339       352       347       334       335       338       293       301       286       288       295       291       288       287       304       289
dram[3]:        299       302       306       316       317       314       305       287       291       290       293       293       287       292       283       284
dram[4]:        316       335       326       301       343       314       298       290       279       277       288       281       290       289       288       293
dram[5]:        314       313       299       324       338       326       330       295       280       282       287       291       286       297       283       277
dram[6]:        339       331       303       319       307       322       295       331       279       286       287       281       284       292       281       279
dram[7]:        316       338       305       319       310       341       291       298       277       290       279       288       281       287       286       283
dram[8]:        311       305       316       321       309       349       306       292       284       289       280       284       294       282       282       290
dram[9]:        316       308       323       311       318       310       286       301       294       278       301       299       281       277       284       289
dram[10]:        323       309       316       322       319       312       304       290       289       287       282       301       282       289       282       284
dram[11]:        317       322       319       359       315       357       292       295       283       281       281       284       281       283       293       298
Memory Partition 0: 
Cache L2_bank_000:
MSHR contents

Cache L2_bank_001:
MSHR contents

In Dram Latency Queue (total = 0): 
DRAM[0]: 16 bks, busW=4 BL=8 CL=16, tRRD=8 tCCD=2, tRCD=16 tRAS=37 tRP=16 tRC=52
n_cmd=28580 n_nop=26324 n_act=38 n_pre=22 n_ref_event=93959972702880 n_req=2196 n_rd=2196 n_rd_L2_A=0 n_write=0 n_wr_bk=0 bw_util=0.1537
n_activity=11255 dram_eff=0.3902
bk0: 188a 28112i bk1: 184a 28118i bk2: 144a 28212i bk3: 144a 28260i bk4: 128a 28236i bk5: 128a 28186i bk6: 128a 28291i bk7: 128a 28257i bk8: 128a 28302i bk9: 128a 28281i bk10: 128a 28313i bk11: 128a 28294i bk12: 128a 28316i bk13: 128a 28312i bk14: 128a 28300i bk15: 128a 28313i 

------------------------------------------------------------------------

Row_Buffer_Locality = 0.989071
Row_Buffer_Locality_read = 0.989071
Row_Buffer_Locality_write = -nan
Bank_Level_Parallism = 1.263738
Bank_Level_Parallism_Col = 0.672373
Bank_Level_Parallism_Ready = 1.078744
write_to_read_ratio_blp_rw_average = 0.000000
GrpLevelPara = 0.000000 

BW Util details:
bwutil = 0.153674 
total_CMD = 28580 
util_bw = 4392 
Wasted_Col = 2015 
Wasted_Row = 219 
Idle = 21954 

BW Util Bottlenecks: 
RCDc_limit = 502 
RCDWRc_limit = 0 
WTRc_limit = 0 
RTWc_limit = 0 
CCDLc_limit = 1644 
rwq = 0 
CCDLc_limit_alone = 1644 
WTRc_limit_alone = 0 
RTWc_limit_alone = 0 

Commands details: 
total_CMD = 28580 
n_nop = 26324 
Read = 2196 
Write = 0 
L2_Alloc = 0 
L2_WB = 0 
n_act = 38 
n_pre = 22 
n_ref = 93959972702880 
n_req = 2196 
total_req = 2196 

Dual Bus Interface Util: 
issued_total_row = 60 
issued_total_col = 2196 
Row_Bus_Util =  0.002099 
CoL_Bus_Util = 0.076837 
Either_Row_CoL_Bus_Util = 0.078936 
Issued_on_Two_Bus_Simul_Util = 0.000000 
issued_two_Eff = 0.000000 
queue_avg = 0.244682 


dram_util_bins: 0 0 0 0 0 0 0 0 0 0
dram_eff_bins: 0 0 0 0 0 0 0 0 0 0
mrqq: max=20 avg=0.244682
Memory Partition 1: 
Cache L2_bank_002:
MSHR contents

Cache L2_bank_003:
MSHR contents

In Dram Latency Queue (total = 0): 
DRAM[1]: 16 bks, busW=4 BL=8 CL=16, tRRD=8 tCCD=2, tRCD=16 tRAS=37 tRP=16 tRC=52
n_cmd=28580 n_nop=26328 n_act=38 n_pre=22 n_ref_event=93959973562512 n_req=2192 n_rd=2192 n_rd_L2_A=0 n_write=0 n_wr_bk=0 bw_util=0.1534
n_activity=11011 dram_eff=0.3981
bk0: 184a 28120i bk1: 184a 28117i bk2: 144a 28251i bk3: 144a 28249i bk4: 128a 28278i bk5: 128a 28248i bk6: 128a 28324i bk7: 128a 28314i bk8: 128a 28301i bk9: 128a 28257i bk10: 128a 28275i bk11: 128a 28298i bk12: 128a 28316i bk13: 128a 28299i bk14: 128a 28296i bk15: 128a 28310i 

------------------------------------------------------------------------

Row_Buffer_Locality = 0.989507
Row_Buffer_Locality_read = 0.989507
Row_Buffer_Locality_write = -nan
Bank_Level_Parallism = 1.274308
Bank_Level_Parallism_Col = 1.241900
Bank_Level_Parallism_Ready = 1.083447
write_to_read_ratio_blp_rw_average = 0.000000
GrpLevelPara = 1.233063 

BW Util details:
bwutil = 0.153394 
total_CMD = 28580 
util_bw = 4384 
Wasted_Col = 1915 
Wasted_Row = 171 
Idle = 22110 

BW Util Bottlenecks: 
RCDc_limit = 442 
RCDWRc_limit = 0 
WTRc_limit = 0 
RTWc_limit = 0 
CCDLc_limit = 1614 
rwq = 0 
CCDLc_limit_alone = 1614 
WTRc_limit_alone = 0 
RTWc_limit_alone = 0 

Commands details: 
total_CMD = 28580 
n_nop = 26328 
Read = 2192 
Write = 0 
L2_Alloc = 0 
L2_WB = 0 
n_act = 38 
n_pre = 22 
n_ref = 93959973562512 
n_req = 2192 
total_req = 2192 

Dual Bus Interface Util: 
issued_total_row = 60 
issued_total_col = 2192 
Row_Bus_Util =  0.002099 
CoL_Bus_Util = 0.076697 
Either_Row_CoL_Bus_Util = 0.078796 
Issued_on_Two_Bus_Simul_Util = 0.000000 
issued_two_Eff = 0.000000 
queue_avg = 0.171029 


dram_util_bins: 0 0 0 0 0 0 0 0 0 0
dram_eff_bins: 0 0 0 0 0 0 0 0 0 0
mrqq: max=11 avg=0.171029
Memory Partition 2: 
Cache L2_bank_004:
MSHR contents

Cache L2_bank_005:
MSHR contents

In Dram Latency Queue (total = 0): 
DRAM[2]: 16 bks, busW=4 BL=8 CL=16, tRRD=8 tCCD=2, tRCD=16 tRAS=37 tRP=16 tRC=52
n_cmd=28580 n_nop=26320 n_act=38 n_pre=22 n_ref_event=0 n_req=2200 n_rd=2200 n_rd_L2_A=0 n_write=0 n_wr_bk=0 bw_util=0.154
n_activity=11261 dram_eff=0.3907
bk0: 184a 28122i bk1: 184a 28067i bk2: 148a 28245i bk3: 148a 28232i bk4: 128a 28257i bk5: 128a 28242i bk6: 128a 28294i bk7: 128a 28297i bk8: 128a 28294i bk9: 128a 28303i bk10: 128a 28294i bk11: 128a 28323i bk12: 128a 28310i bk13: 128a 28283i bk14: 128a 28275i bk15: 128a 28307i 

------------------------------------------------------------------------

Row_Buffer_Locality = 0.990000
Row_Buffer_Locality_read = 0.990000
Row_Buffer_Locality_write = -nan
Bank_Level_Parallism = 1.273219
Bank_Level_Parallism_Col = 1.243194
Bank_Level_Parallism_Ready = 1.094545
write_to_read_ratio_blp_rw_average = 0.000000
GrpLevelPara = 1.238657 

BW Util details:
bwutil = 0.153954 
total_CMD = 28580 
util_bw = 4400 
Wasted_Col = 1994 
Wasted_Row = 187 
Idle = 21999 

BW Util Bottlenecks: 
RCDc_limit = 445 
RCDWRc_limit = 0 
WTRc_limit = 0 
RTWc_limit = 0 
CCDLc_limit = 1663 
rwq = 0 
CCDLc_limit_alone = 1663 
WTRc_limit_alone = 0 
RTWc_limit_alone = 0 

Commands details: 
total_CMD = 28580 
n_nop = 26320 
Read = 2200 
Write = 0 
L2_Alloc = 0 
L2_WB = 0 
n_act = 38 
n_pre = 22 
n_ref = 0 
n_req = 2200 
total_req = 2200 

Dual Bus Interface Util: 
issued_total_row = 60 
issued_total_col = 2200 
Row_Bus_Util =  0.002099 
CoL_Bus_Util = 0.076977 
Either_Row_CoL_Bus_Util = 0.079076 
Issued_on_Two_Bus_Simul_Util = 0.000000 
issued_two_Eff = 0.000000 
queue_avg = 0.168999 


dram_util_bins: 0 0 0 0 0 0 0 0 0 0
dram_eff_bins: 0 0 0 0 0 0 0 0 0 0
mrqq: max=12 avg=0.168999
Memory Partition 3: 
Cache L2_bank_006:
MSHR contents

Cache L2_bank_007:
MSHR contents

In Dram Latency Queue (total = 0): 
DRAM[3]: 16 bks, busW=4 BL=8 CL=16, tRRD=8 tCCD=2, tRCD=16 tRAS=37 tRP=16 tRC=52
n_cmd=28580 n_nop=26318 n_act=39 n_pre=23 n_ref_event=0 n_req=2200 n_rd=2200 n_rd_L2_A=0 n_write=0 n_wr_bk=0 bw_util=0.154
n_activity=11111 dram_eff=0.396
bk0: 184a 28100i bk1: 184a 28092i bk2: 148a 28209i bk3: 148a 28221i bk4: 128a 28249i bk5: 128a 28266i bk6: 128a 28289i bk7: 128a 28278i bk8: 128a 28294i bk9: 128a 28297i bk10: 128a 28294i bk11: 128a 28316i bk12: 128a 28329i bk13: 128a 28290i bk14: 128a 28318i bk15: 128a 28305i 

------------------------------------------------------------------------

Row_Buffer_Locality = 0.989545
Row_Buffer_Locality_read = 0.989545
Row_Buffer_Locality_write = -nan
Bank_Level_Parallism = 1.274633
Bank_Level_Parallism_Col = 1.243827
Bank_Level_Parallism_Ready = 1.085909
write_to_read_ratio_blp_rw_average = 0.000000
GrpLevelPara = 1.240196 

BW Util details:
bwutil = 0.153954 
total_CMD = 28580 
util_bw = 4400 
Wasted_Col = 1961 
Wasted_Row = 183 
Idle = 22036 

BW Util Bottlenecks: 
RCDc_limit = 476 
RCDWRc_limit = 0 
WTRc_limit = 0 
RTWc_limit = 0 
CCDLc_limit = 1643 
rwq = 0 
CCDLc_limit_alone = 1643 
WTRc_limit_alone = 0 
RTWc_limit_alone = 0 

Commands details: 
total_CMD = 28580 
n_nop = 26318 
Read = 2200 
Write = 0 
L2_Alloc = 0 
L2_WB = 0 
n_act = 39 
n_pre = 23 
n_ref = 0 
n_req = 2200 
total_req = 2200 

Dual Bus Interface Util: 
issued_total_row = 62 
issued_total_col = 2200 
Row_Bus_Util =  0.002169 
CoL_Bus_Util = 0.076977 
Either_Row_CoL_Bus_Util = 0.079146 
Issued_on_Two_Bus_Simul_Util = 0.000000 
issued_two_Eff = 0.000000 
queue_avg = 0.185059 


dram_util_bins: 0 0 0 0 0 0 0 0 0 0
dram_eff_bins: 0 0 0 0 0 0 0 0 0 0
mrqq: max=12 avg=0.185059
Memory Partition 4: 
Cache L2_bank_008:
MSHR contents

Cache L2_bank_009:
MSHR contents

In Dram Latency Queue (total = 0): 
DRAM[4]: 16 bks, busW=4 BL=8 CL=16, tRRD=8 tCCD=2, tRCD=16 tRAS=37 tRP=16 tRC=52
n_cmd=28580 n_nop=26332 n_act=36 n_pre=20 n_ref_event=0 n_req=2192 n_rd=2192 n_rd_L2_A=0 n_write=0 n_wr_bk=0 bw_util=0.1534
n_activity=11664 dram_eff=0.3759
bk0: 180a 28145i bk1: 180a 28122i bk2: 148a 28253i bk3: 148a 28258i bk4: 128a 28280i bk5: 128a 28265i bk6: 128a 28343i bk7: 128a 28294i bk8: 128a 28299i bk9: 128a 28333i bk10: 128a 28338i bk11: 128a 28306i bk12: 128a 28302i bk13: 128a 28319i bk14: 128a 28326i bk15: 128a 28284i 

------------------------------------------------------------------------

Row_Buffer_Locality = 0.990876
Row_Buffer_Locality_read = 0.990876
Row_Buffer_Locality_write = -nan
Bank_Level_Parallism = 1.232373
Bank_Level_Parallism_Col = 1.214443
Bank_Level_Parallism_Ready = 1.077519
write_to_read_ratio_blp_rw_average = 0.000000
GrpLevelPara = 1.210584 

BW Util details:
bwutil = 0.153394 
total_CMD = 28580 
util_bw = 4384 
Wasted_Col = 2023 
Wasted_Row = 190 
Idle = 21983 

BW Util Bottlenecks: 
RCDc_limit = 427 
RCDWRc_limit = 0 
WTRc_limit = 0 
RTWc_limit = 0 
CCDLc_limit = 1704 
rwq = 0 
CCDLc_limit_alone = 1704 
WTRc_limit_alone = 0 
RTWc_limit_alone = 0 

Commands details: 
total_CMD = 28580 
n_nop = 26332 
Read = 2192 
Write = 0 
L2_Alloc = 0 
L2_WB = 0 
n_act = 36 
n_pre = 20 
n_ref = 0 
n_req = 2192 
total_req = 2192 

Dual Bus Interface Util: 
issued_total_row = 56 
issued_total_col = 2192 
Row_Bus_Util =  0.001959 
CoL_Bus_Util = 0.076697 
Either_Row_CoL_Bus_Util = 0.078656 
Issued_on_Two_Bus_Simul_Util = 0.000000 
issued_two_Eff = 0.000000 
queue_avg = 0.176487 


dram_util_bins: 0 0 0 0 0 0 0 0 0 0
dram_eff_bins: 0 0 0 0 0 0 0 0 0 0
mrqq: max=15 avg=0.176487
Memory Partition 5: 
Cache L2_bank_010:
MSHR contents

Cache L2_bank_011:
MSHR contents

In Dram Latency Queue (total = 0): 
DRAM[5]: 16 bks, busW=4 BL=8 CL=16, tRRD=8 tCCD=2, tRCD=16 tRAS=37 tRP=16 tRC=52
n_cmd=28580 n_nop=26333 n_act=36 n_pre=20 n_ref_event=0 n_req=2192 n_rd=2192 n_rd_L2_A=0 n_write=0 n_wr_bk=0 bw_util=0.1534
n_activity=11369 dram_eff=0.3856
bk0: 180a 28152i bk1: 180a 28166i bk2: 148a 28215i bk3: 148a 28235i bk4: 128a 28252i bk5: 128a 28230i bk6: 128a 28285i bk7: 128a 28302i bk8: 128a 28300i bk9: 128a 28288i bk10: 128a 28304i bk11: 128a 28311i bk12: 128a 28305i bk13: 128a 28287i bk14: 128a 28310i bk15: 128a 28315i 

------------------------------------------------------------------------

Row_Buffer_Locality = 0.990876
Row_Buffer_Locality_read = 0.990876
Row_Buffer_Locality_write = -nan
Bank_Level_Parallism = 1.253010
Bank_Level_Parallism_Col = 1.004582
Bank_Level_Parallism_Ready = 1.080292
write_to_read_ratio_blp_rw_average = 0.000000
GrpLevelPara = 0.000000 

BW Util details:
bwutil = 0.153394 
total_CMD = 28580 
util_bw = 4384 
Wasted_Col = 2020 
Wasted_Row = 186 
Idle = 21990 

BW Util Bottlenecks: 
RCDc_limit = 455 
RCDWRc_limit = 0 
WTRc_limit = 0 
RTWc_limit = 0 
CCDLc_limit = 1688 
rwq = 0 
CCDLc_limit_alone = 1688 
WTRc_limit_alone = 0 
RTWc_limit_alone = 0 

Commands details: 
total_CMD = 28580 
n_nop = 26333 
Read = 2192 
Write = 0 
L2_Alloc = 0 
L2_WB = 0 
n_act = 36 
n_pre = 20 
n_ref = 0 
n_req = 2192 
total_req = 2192 

Dual Bus Interface Util: 
issued_total_row = 56 
issued_total_col = 2192 
Row_Bus_Util =  0.001959 
CoL_Bus_Util = 0.076697 
Either_Row_CoL_Bus_Util = 0.078621 
Issued_on_Two_Bus_Simul_Util = 0.000035 
issued_two_Eff = 0.000445 
queue_avg = 0.197271 


dram_util_bins: 0 0 0 0 0 0 0 0 0 0
dram_eff_bins: 0 0 0 0 0 0 0 0 0 0
mrqq: max=28 avg=0.197271
Memory Partition 6: 
Cache L2_bank_012:
MSHR contents

Cache L2_bank_013:
MSHR contents

In Dram Latency Queue (total = 0): 
DRAM[6]: 16 bks, busW=4 BL=8 CL=16, tRRD=8 tCCD=2, tRCD=16 tRAS=37 tRP=16 tRC=52
n_cmd=28580 n_nop=26332 n_act=36 n_pre=20 n_ref_event=4568229571824690154 n_req=2192 n_rd=2192 n_rd_L2_A=0 n_write=0 n_wr_bk=0 bw_util=0.1534
n_activity=11214 dram_eff=0.3909
bk0: 180a 28158i bk1: 180a 28167i bk2: 148a 28255i bk3: 148a 28224i bk4: 128a 28281i bk5: 128a 28259i bk6: 128a 28282i bk7: 128a 28229i bk8: 128a 28313i bk9: 128a 28313i bk10: 128a 28309i bk11: 128a 28302i bk12: 128a 28313i bk13: 128a 28316i bk14: 128a 28295i bk15: 128a 28305i 

------------------------------------------------------------------------

Row_Buffer_Locality = 0.990876
Row_Buffer_Locality_read = 0.990876
Row_Buffer_Locality_write = -nan
Bank_Level_Parallism = 1.249210
Bank_Level_Parallism_Col = 1.222424
Bank_Level_Parallism_Ready = 1.076151
write_to_read_ratio_blp_rw_average = 0.000000
GrpLevelPara = 1.218608 

BW Util details:
bwutil = 0.153394 
total_CMD = 28580 
util_bw = 4384 
Wasted_Col = 1985 
Wasted_Row = 169 
Idle = 22042 

BW Util Bottlenecks: 
RCDc_limit = 427 
RCDWRc_limit = 0 
WTRc_limit = 0 
RTWc_limit = 0 
CCDLc_limit = 1698 
rwq = 0 
CCDLc_limit_alone = 1698 
WTRc_limit_alone = 0 
RTWc_limit_alone = 0 

Commands details: 
total_CMD = 28580 
n_nop = 26332 
Read = 2192 
Write = 0 
L2_Alloc = 0 
L2_WB = 0 
n_act = 36 
n_pre = 20 
n_ref = 4568229571824690154 
n_req = 2192 
total_req = 2192 

Dual Bus Interface Util: 
issued_total_row = 56 
issued_total_col = 2192 
Row_Bus_Util =  0.001959 
CoL_Bus_Util = 0.076697 
Either_Row_CoL_Bus_Util = 0.078656 
Issued_on_Two_Bus_Simul_Util = 0.000000 
issued_two_Eff = 0.000000 
queue_avg = 0.191917 


dram_util_bins: 0 0 0 0 0 0 0 0 0 0
dram_eff_bins: 0 0 0 0 0 0 0 0 0 0
mrqq: max=17 avg=0.191917
Memory Partition 7: 
Cache L2_bank_014:
MSHR contents

Cache L2_bank_015:
MSHR contents

In Dram Latency Queue (total = 0): 
DRAM[7]: 16 bks, busW=4 BL=8 CL=16, tRRD=8 tCCD=2, tRCD=16 tRAS=37 tRP=16 tRC=52
n_cmd=28580 n_nop=26340 n_act=36 n_pre=20 n_ref_event=0 n_req=2184 n_rd=2184 n_rd_L2_A=0 n_write=0 n_wr_bk=0 bw_util=0.1528
n_activity=11151 dram_eff=0.3917
bk0: 180a 28194i bk1: 180a 28164i bk2: 144a 28251i bk3: 144a 28245i bk4: 128a 28272i bk5: 128a 28245i bk6: 128a 28335i bk7: 128a 28243i bk8: 128a 28307i bk9: 128a 28304i bk10: 128a 28285i bk11: 128a 28286i bk12: 128a 28313i bk13: 128a 28316i bk14: 128a 28305i bk15: 128a 28338i 

------------------------------------------------------------------------

Row_Buffer_Locality = 0.990842
Row_Buffer_Locality_read = 0.990842
Row_Buffer_Locality_write = -nan
Bank_Level_Parallism = 1.259140
Bank_Level_Parallism_Col = 1.232359
Bank_Level_Parallism_Ready = 1.067308
write_to_read_ratio_blp_rw_average = 0.000000
GrpLevelPara = 1.229008 

BW Util details:
bwutil = 0.152834 
total_CMD = 28580 
util_bw = 4368 
Wasted_Col = 1887 
Wasted_Row = 185 
Idle = 22140 

BW Util Bottlenecks: 
RCDc_limit = 434 
RCDWRc_limit = 0 
WTRc_limit = 0 
RTWc_limit = 0 
CCDLc_limit = 1606 
rwq = 0 
CCDLc_limit_alone = 1606 
WTRc_limit_alone = 0 
RTWc_limit_alone = 0 

Commands details: 
total_CMD = 28580 
n_nop = 26340 
Read = 2184 
Write = 0 
L2_Alloc = 0 
L2_WB = 0 
n_act = 36 
n_pre = 20 
n_ref = 0 
n_req = 2184 
total_req = 2184 

Dual Bus Interface Util: 
issued_total_row = 56 
issued_total_col = 2184 
Row_Bus_Util =  0.001959 
CoL_Bus_Util = 0.076417 
Either_Row_CoL_Bus_Util = 0.078376 
Issued_on_Two_Bus_Simul_Util = 0.000000 
issued_two_Eff = 0.000000 
queue_avg = 0.151400 


dram_util_bins: 0 0 0 0 0 0 0 0 0 0
dram_eff_bins: 0 0 0 0 0 0 0 0 0 0
mrqq: max=8 avg=0.1514
Memory Partition 8: 
Cache L2_bank_016:
MSHR contents

Cache L2_bank_017:
MSHR contents

In Dram Latency Queue (total = 0): 
DRAM[8]: 16 bks, busW=4 BL=8 CL=16, tRRD=8 tCCD=2, tRCD=16 tRAS=37 tRP=16 tRC=52
n_cmd=28580 n_nop=26341 n_act=36 n_pre=20 n_ref_event=0 n_req=2184 n_rd=2184 n_rd_L2_A=0 n_write=0 n_wr_bk=0 bw_util=0.1528
n_activity=11008 dram_eff=0.3968
bk0: 180a 28162i bk1: 180a 28152i bk2: 144a 28244i bk3: 144a 28251i bk4: 128a 28281i bk5: 128a 28246i bk6: 128a 28301i bk7: 128a 28279i bk8: 128a 28301i bk9: 128a 28317i bk10: 128a 28309i bk11: 128a 28298i bk12: 128a 28277i bk13: 128a 28270i bk14: 128a 28326i bk15: 128a 28321i 

------------------------------------------------------------------------

Row_Buffer_Locality = 0.990842
Row_Buffer_Locality_read = 0.990842
Row_Buffer_Locality_write = -nan
Bank_Level_Parallism = 1.269004
Bank_Level_Parallism_Col = 1.236813
Bank_Level_Parallism_Ready = 1.081960
write_to_read_ratio_blp_rw_average = 0.000000
GrpLevelPara = 1.228882 

BW Util details:
bwutil = 0.152834 
total_CMD = 28580 
util_bw = 4368 
Wasted_Col = 1943 
Wasted_Row = 147 
Idle = 22122 

BW Util Bottlenecks: 
RCDc_limit = 426 
RCDWRc_limit = 0 
WTRc_limit = 0 
RTWc_limit = 0 
CCDLc_limit = 1672 
rwq = 0 
CCDLc_limit_alone = 1672 
WTRc_limit_alone = 0 
RTWc_limit_alone = 0 

Commands details: 
total_CMD = 28580 
n_nop = 26341 
Read = 2184 
Write = 0 
L2_Alloc = 0 
L2_WB = 0 
n_act = 36 
n_pre = 20 
n_ref = 0 
n_req = 2184 
total_req = 2184 

Dual Bus Interface Util: 
issued_total_row = 56 
issued_total_col = 2184 
Row_Bus_Util =  0.001959 
CoL_Bus_Util = 0.076417 
Either_Row_CoL_Bus_Util = 0.078341 
Issued_on_Two_Bus_Simul_Util = 0.000035 
issued_two_Eff = 0.000447 
queue_avg = 0.174283 


dram_util_bins: 0 0 0 0 0 0 0 0 0 0
dram_eff_bins: 0 0 0 0 0 0 0 0 0 0
mrqq: max=9 avg=0.174283
Memory Partition 9: 
Cache L2_bank_018:
MSHR contents

Cache L2_bank_019:
MSHR contents

In Dram Latency Queue (total = 0): 
DRAM[9]: 16 bks, busW=4 BL=8 CL=16, tRRD=8 tCCD=2, tRCD=16 tRAS=37 tRP=16 tRC=52
n_cmd=28580 n_nop=26340 n_act=36 n_pre=20 n_ref_event=0 n_req=2184 n_rd=2184 n_rd_L2_A=0 n_write=0 n_wr_bk=0 bw_util=0.1528
n_activity=11006 dram_eff=0.3969
bk0: 180a 28154i bk1: 180a 28142i bk2: 144a 28237i bk3: 144a 28226i bk4: 128a 28269i bk5: 128a 28258i bk6: 128a 28281i bk7: 128a 28277i bk8: 128a 28292i bk9: 128a 28326i bk10: 128a 28321i bk11: 128a 28307i bk12: 128a 28306i bk13: 128a 28315i bk14: 128a 28309i bk15: 128a 28331i 

------------------------------------------------------------------------

Row_Buffer_Locality = 0.990842
Row_Buffer_Locality_read = 0.990842
Row_Buffer_Locality_write = -nan
Bank_Level_Parallism = 1.242669
Bank_Level_Parallism_Col = 1.222912
Bank_Level_Parallism_Ready = 1.058124
write_to_read_ratio_blp_rw_average = 0.000000
GrpLevelPara = 1.219075 

BW Util details:
bwutil = 0.152834 
total_CMD = 28580 
util_bw = 4368 
Wasted_Col = 1944 
Wasted_Row = 189 
Idle = 22079 

BW Util Bottlenecks: 
RCDc_limit = 439 
RCDWRc_limit = 0 
WTRc_limit = 0 
RTWc_limit = 0 
CCDLc_limit = 1646 
rwq = 0 
CCDLc_limit_alone = 1646 
WTRc_limit_alone = 0 
RTWc_limit_alone = 0 

Commands details: 
total_CMD = 28580 
n_nop = 26340 
Read = 2184 
Write = 0 
L2_Alloc = 0 
L2_WB = 0 
n_act = 36 
n_pre = 20 
n_ref = 0 
n_req = 2184 
total_req = 2184 

Dual Bus Interface Util: 
issued_total_row = 56 
issued_total_col = 2184 
Row_Bus_Util =  0.001959 
CoL_Bus_Util = 0.076417 
Either_Row_CoL_Bus_Util = 0.078376 
Issued_on_Two_Bus_Simul_Util = 0.000000 
issued_two_Eff = 0.000000 
queue_avg = 0.168369 


dram_util_bins: 0 0 0 0 0 0 0 0 0 0
dram_eff_bins: 0 0 0 0 0 0 0 0 0 0
mrqq: max=9 avg=0.168369
Memory Partition 10: 
Cache L2_bank_020:
MSHR contents

Cache L2_bank_021:
MSHR contents

In Dram Latency Queue (total = 0): 
DRAM[10]: 16 bks, busW=4 BL=8 CL=16, tRRD=8 tCCD=2, tRCD=16 tRAS=37 tRP=16 tRC=52
n_cmd=28580 n_nop=26340 n_act=36 n_pre=20 n_ref_event=0 n_req=2184 n_rd=2184 n_rd_L2_A=0 n_write=0 n_wr_bk=0 bw_util=0.1528
n_activity=11104 dram_eff=0.3934
bk0: 180a 28158i bk1: 180a 28150i bk2: 144a 28242i bk3: 144a 28234i bk4: 128a 28286i bk5: 128a 28260i bk6: 128a 28265i bk7: 128a 28298i bk8: 128a 28299i bk9: 128a 28341i bk10: 128a 28323i bk11: 128a 28298i bk12: 128a 28329i bk13: 128a 28288i bk14: 128a 28312i bk15: 128a 28283i 

------------------------------------------------------------------------

Row_Buffer_Locality = 0.990842
Row_Buffer_Locality_read = 0.990842
Row_Buffer_Locality_write = -nan
Bank_Level_Parallism = 1.238204
Bank_Level_Parallism_Col = 1.214013
Bank_Level_Parallism_Ready = 1.063586
write_to_read_ratio_blp_rw_average = 0.000000
GrpLevelPara = 1.211472 

BW Util details:
bwutil = 0.152834 
total_CMD = 28580 
util_bw = 4368 
Wasted_Col = 2003 
Wasted_Row = 159 
Idle = 22050 

BW Util Bottlenecks: 
RCDc_limit = 441 
RCDWRc_limit = 0 
WTRc_limit = 0 
RTWc_limit = 0 
CCDLc_limit = 1682 
rwq = 0 
CCDLc_limit_alone = 1682 
WTRc_limit_alone = 0 
RTWc_limit_alone = 0 

Commands details: 
total_CMD = 28580 
n_nop = 26340 
Read = 2184 
Write = 0 
L2_Alloc = 0 
L2_WB = 0 
n_act = 36 
n_pre = 20 
n_ref = 0 
n_req = 2184 
total_req = 2184 

Dual Bus Interface Util: 
issued_total_row = 56 
issued_total_col = 2184 
Row_Bus_Util =  0.001959 
CoL_Bus_Util = 0.076417 
Either_Row_CoL_Bus_Util = 0.078376 
Issued_on_Two_Bus_Simul_Util = 0.000000 
issued_two_Eff = 0.000000 
queue_avg = 0.177292 


dram_util_bins: 0 0 0 0 0 0 0 0 0 0
dram_eff_bins: 0 0 0 0 0 0 0 0 0 0
mrqq: max=12 avg=0.177292
Memory Partition 11: 
Cache L2_bank_022:
MSHR contents

Cache L2_bank_023:
MSHR contents

In Dram Latency Queue (total = 0): 
DRAM[11]: 16 bks, busW=4 BL=8 CL=16, tRRD=8 tCCD=2, tRCD=16 tRAS=37 tRP=16 tRC=52
n_cmd=28580 n_nop=26340 n_act=36 n_pre=20 n_ref_event=0 n_req=2184 n_rd=2184 n_rd_L2_A=0 n_write=0 n_wr_bk=0 bw_util=0.1528
n_activity=10985 dram_eff=0.3976
bk0: 180a 28186i bk1: 180a 28168i bk2: 144a 28215i bk3: 144a 28237i bk4: 128a 28259i bk5: 128a 28252i bk6: 128a 28294i bk7: 128a 28292i bk8: 128a 28292i bk9: 128a 28311i bk10: 128a 28296i bk11: 128a 28297i bk12: 128a 28299i bk13: 128a 28287i bk14: 128a 28303i bk15: 128a 28317i 

------------------------------------------------------------------------

Row_Buffer_Locality = 0.990842
Row_Buffer_Locality_read = 0.990842
Row_Buffer_Locality_write = -nan
Bank_Level_Parallism = 1.259416
Bank_Level_Parallism_Col = 1.233022
Bank_Level_Parallism_Ready = 1.063158
write_to_read_ratio_blp_rw_average = 0.000000
GrpLevelPara = 1.224968 

BW Util details:
bwutil = 0.152834 
total_CMD = 28580 
util_bw = 4368 
Wasted_Col = 1920 
Wasted_Row = 164 
Idle = 22128 

BW Util Bottlenecks: 
RCDc_limit = 402 
RCDWRc_limit = 0 
WTRc_limit = 0 
RTWc_limit = 0 
CCDLc_limit = 1684 
rwq = 0 
CCDLc_limit_alone = 1684 
WTRc_limit_alone = 0 
RTWc_limit_alone = 0 

Commands details: 
total_CMD = 28580 
n_nop = 26340 
Read = 2184 
Write = 0 
L2_Alloc = 0 
L2_WB = 0 
n_act = 36 
n_pre = 20 
n_ref = 0 
n_req = 2184 
total_req = 2184 

Dual Bus Interface Util: 
issued_total_row = 56 
issued_total_col = 2184 
Row_Bus_Util =  0.001959 
CoL_Bus_Util = 0.076417 
Either_Row_CoL_Bus_Util = 0.078376 
Issued_on_Two_Bus_Simul_Util = 0.000000 
issued_two_Eff = 0.000000 
queue_avg = 0.174703 


dram_util_bins: 0 0 0 0 0 0 0 0 0 0
dram_eff_bins: 0 0 0 0 0 0 0 0 0 0
mrqq: max=15 avg=0.174703

========= L2 cache stats =========
L2_cache_bank[0]: Access = 1665, Miss = 1167, Miss_rate = 0.701, Pending_hits = 416, Reservation_fails = 0
L2_cache_bank[1]: Access = 1636, Miss = 1161, Miss_rate = 0.710, Pending_hits = 398, Reservation_fails = 0
L2_cache_bank[2]: Access = 1639, Miss = 1163, Miss_rate = 0.710, Pending_hits = 384, Reservation_fails = 0
L2_cache_bank[3]: Access = 1638, Miss = 1162, Miss_rate = 0.709, Pending_hits = 366, Reservation_fails = 0
L2_cache_bank[4]: Access = 1641, Miss = 1165, Miss_rate = 0.710, Pending_hits = 381, Reservation_fails = 0
L2_cache_bank[5]: Access = 1631, Miss = 1165, Miss_rate = 0.714, Pending_hits = 390, Reservation_fails = 0
[...]
n_cmd=128797 n_nop=117586 n_act=236 n_pre=220 n_ref_event=4568229571824690154 n_req=10580 n_rd=10520 n_rd_L2_A=0 n_write=0 n_wr_bk=240 bw_util=0.1671
n_activity=55954 dram_eff=0.3846
bk0: 721a 125975i bk1: 725a 125960i bk2: 686a 126023i bk3: 684a 125948i bk4: 652a 127134i bk5: 652a 127118i bk6: 640a 127231i bk7: 640a 127178i bk8: 640a 127258i bk9: 640a 127266i bk10: 640a 127309i bk11: 640a 127353i bk12: 640a 127366i bk13: 640a 127374i bk14: 640a 127286i bk15: 640a 127253i 

------------------------------------------------------------------------

Row_Buffer_Locality = 0.979206
Row_Buffer_Locality_read = 0.982129
Row_Buffer_Locality_write = 0.466667
Bank_Level_Parallism = 1.342315
Bank_Level_Parallism_Col = 1.272951
Bank_Level_Parallism_Ready = 1.065924
write_to_read_ratio_blp_rw_average = 0.040533
GrpLevelPara = 1.263834 

BW Util details:
bwutil = 0.167085 
total_CMD = 128797 
util_bw = 21520 
Wasted_Col = 10706 
Wasted_Row = 1555 
Idle = 95016 

BW Util Bottlenecks: 
RCDc_limit = 2544 
RCDWRc_limit = 206 
WTRc_limit = 534 
RTWc_limit = 840 
CCDLc_limit = 8281 
rwq = 0 
CCDLc_limit_alone = 8241 
WTRc_limit_alone = 522 
RTWc_limit_alone = 812 

Commands details: 
total_CMD = 128797 
n_nop = 117586 
Read = 10520 
Write = 0 
L2_Alloc = 0 
L2_WB = 240 
n_act = 236 
n_pre = 220 
n_ref = 4568229571824690154 
n_req = 10580 
total_req = 10760 

Dual Bus Interface Util: 
issued_total_row = 456 
issued_total_col = 10760 
Row_Bus_Util =  0.003540 
CoL_Bus_Util = 0.083542 
Either_Row_CoL_Bus_Util = 0.087044 
Issued_on_Two_Bus_Simul_Util = 0.000039 
issued_two_Eff = 0.000446 
queue_avg = 0.255021 


dram_util_bins: 0 0 0 0 0 0 0 0 0 0
dram_eff_bins: 0 0 0 0 0 0 0 0 0 0
mrqq: max=17 avg=0.255021
Memory Partition 7: 
Cache L2_bank_014:
MSHR contents

Cache L2_bank_015:
MSHR contents

In Dram Latency Queue (total = 0): 
DRAM[7]: 16 bks, busW=4 BL=8 CL=16, tRRD=8 tCCD=2, tRCD=16 tRAS=37 tRP=16 tRC=52
n_cmd=128797 n_nop=117618 n_act=228 n_pre=212 n_ref_event=0 n_req=10571 n_rd=10514 n_rd_L2_A=0 n_write=0 n_wr_bk=228 bw_util=0.1668
n_activity=56115 dram_eff=0.3829
bk0: 720a 126009i bk1: 720a 125935i bk2: 684a 126099i bk3: 686a 126130i bk4: 652a 127091i bk5: 652a 127094i bk6: 640a 127304i bk7: 640a 127180i bk8: 640a 127246i bk9: 640a 127334i bk10: 640a 127291i bk11: 640a 127295i bk12: 640a 127381i bk13: 640a 127380i bk14: 640a 127401i bk15: 640a 127316i 

------------------------------------------------------------------------

Row_Buffer_Locality = 0.979945
Row_Buffer_Locality_read = 0.982500
Row_Buffer_Locality_write = 0.508772
Bank_Level_Parallism = 1.321404
Bank_Level_Parallism_Col = 1.262724
Bank_Level_Parallism_Ready = 1.064936
write_to_read_ratio_blp_rw_average = 0.040884
GrpLevelPara = 1.254342 

BW Util details:
bwutil = 0.166805 
total_CMD = 128797 
util_bw = 21484 
Wasted_Col = 10845 
Wasted_Row = 1587 
Idle = 94881 

BW Util Bottlenecks: 
RCDc_limit = 2474 
RCDWRc_limit = 178 
WTRc_limit = 558 
RTWc_limit = 944 
CCDLc_limit = 8442 
rwq = 0 
CCDLc_limit_alone = 8397 
WTRc_limit_alone = 547 
RTWc_limit_alone = 910 

Commands details: 
total_CMD = 128797 
n_nop = 117618 
Read = 10514 
Write = 0 
L2_Alloc = 0 
L2_WB = 228 
n_act = 228 
n_pre = 212 
n_ref = 0 
n_req = 10571 
total_req = 10742 

Dual Bus Interface Util: 
issued_total_row = 440 
issued_total_col = 10742 
Row_Bus_Util =  0.003416 
CoL_Bus_Util = 0.083403 
Either_Row_CoL_Bus_Util = 0.086796 
Issued_on_Two_Bus_Simul_Util = 0.000023 
issued_two_Eff = 0.000268 
queue_avg = 0.229648 


dram_util_bins: 0 0 0 0 0 0 0 0 0 0
dram_eff_bins: 0 0 0 0 0 0 0 0 0 0
mrqq: max=17 avg=0.229648
Memory Partition 8: 
Cache L2_bank_016:
MSHR contents

Cache L2_bank_017:
MSHR contents

In Dram Latency Queue (total = 0): 
DRAM[8]: 16 bks, busW=4 BL=8 CL=16, tRRD=8 tCCD=2, tRCD=16 tRAS=37 tRP=16 tRC=52
n_cmd=128797 n_nop=117611 n_act=228 n_pre=212 n_ref_event=0 n_req=10576 n_rd=10518 n_rd_L2_A=0 n_write=0 n_wr_bk=232 bw_util=0.1669
n_activity=56013 dram_eff=0.3838
bk0: 725a 125963i bk1: 721a 125777i bk2: 684a 126262i bk3: 684a 126199i bk4: 652a 127182i bk5: 652a 127177i bk6: 640a 127302i bk7: 640a 127298i bk8: 640a 127283i bk9: 640a 127303i bk10: 640a 127322i bk11: 640a 127356i bk12: 640a 127345i bk13: 640a 127296i bk14: 640a 127313i bk15: 640a 127342i 

------------------------------------------------------------------------

Row_Buffer_Locality = 0.979955
Row_Buffer_Locality_read = 0.982506
Row_Buffer_Locality_write = 0.517241
Bank_Level_Parallism = 1.326095
Bank_Level_Parallism_Col = 1.267996
Bank_Level_Parallism_Ready = 1.064039
write_to_read_ratio_blp_rw_average = 0.042460
GrpLevelPara = 1.259926 

BW Util details:
bwutil = 0.166929 
total_CMD = 128797 
util_bw = 21500 
Wasted_Col = 10581 
Wasted_Row = 1560 
Idle = 95156 

BW Util Bottlenecks: 
RCDc_limit = 2435 
RCDWRc_limit = 155 
WTRc_limit = 572 
RTWc_limit = 796 
CCDLc_limit = 8188 
rwq = 0 
CCDLc_limit_alone = 8159 
WTRc_limit_alone = 570 
RTWc_limit_alone = 769 

Commands details: 
total_CMD = 128797 
n_nop = 117611 
Read = 10518 
Write = 0 
L2_Alloc = 0 
L2_WB = 232 
n_act = 228 
n_pre = 212 
n_ref = 0 
n_req = 10576 
total_req = 10750 

Dual Bus Interface Util: 
issued_total_row = 440 
issued_total_col = 10750 
Row_Bus_Util =  0.003416 
CoL_Bus_Util = 0.083465 
Either_Row_CoL_Bus_Util = 0.086850 
Issued_on_Two_Bus_Simul_Util = 0.000031 
issued_two_Eff = 0.000358 
queue_avg = 0.231993 


dram_util_bins: 0 0 0 0 0 0 0 0 0 0
dram_eff_bins: 0 0 0 0 0 0 0 0 0 0
mrqq: max=15 avg=0.231993
Memory Partition 9: 
Cache L2_bank_018:
MSHR contents

Cache L2_bank_019:
MSHR contents

In Dram Latency Queue (total = 0): 
DRAM[9]: 16 bks, busW=4 BL=8 CL=16, tRRD=8 tCCD=2, tRCD=16 tRAS=37 tRP=16 tRC=52
n_cmd=128797 n_nop=117600 n_act=228 n_pre=212 n_ref_event=0 n_req=10582 n_rd=10523 n_rd_L2_A=0 n_write=0 n_wr_bk=236 bw_util=0.1671
n_activity=55713 dram_eff=0.3862
bk0: 724a 125901i bk1: 725a 125835i bk2: 686a 126043i bk3: 684a 125909i bk4: 652a 127181i bk5: 652a 127166i bk6: 640a 127251i bk7: 640a 127324i bk8: 640a 127308i bk9: 640a 127361i bk10: 640a 127357i bk11: 640a 127337i bk12: 640a 127360i bk13: 640a 127305i bk14: 640a 127273i bk15: 640a 127334i 

------------------------------------------------------------------------

Row_Buffer_Locality = 0.979966
Row_Buffer_Locality_read = 0.982705
Row_Buffer_Locality_write = 0.491525
Bank_Level_Parallism = 1.339927
Bank_Level_Parallism_Col = 1.281911
Bank_Level_Parallism_Ready = 1.068729
write_to_read_ratio_blp_rw_average = 0.046603
GrpLevelPara = 1.269654 

BW Util details:
bwutil = 0.167069 
total_CMD = 128797 
util_bw = 21518 
Wasted_Col = 10560 
Wasted_Row = 1511 
Idle = 95208 

BW Util Bottlenecks: 
RCDc_limit = 2340 
RCDWRc_limit = 183 
WTRc_limit = 484 
RTWc_limit = 1051 
CCDLc_limit = 8287 
rwq = 0 
CCDLc_limit_alone = 8229 
WTRc_limit_alone = 472 
RTWc_limit_alone = 1005 

Commands details: 
total_CMD = 128797 
n_nop = 117600 
Read = 10523 
Write = 0 
L2_Alloc = 0 
L2_WB = 236 
n_act = 228 
n_pre = 212 
n_ref = 0 
n_req = 10582 
total_req = 10759 

Dual Bus Interface Util: 
issued_total_row = 440 
issued_total_col = 10759 
Row_Bus_Util =  0.003416 
CoL_Bus_Util = 0.083535 
Either_Row_CoL_Bus_Util = 0.086935 
Issued_on_Two_Bus_Simul_Util = 0.000016 
issued_two_Eff = 0.000179 
queue_avg = 0.224384 


dram_util_bins: 0 0 0 0 0 0 0 0 0 0
dram_eff_bins: 0 0 0 0 0 0 0 0 0 0
mrqq: max=14 avg=0.224384
Memory Partition 10: 
Cache L2_bank_020:
MSHR contents

Cache L2_bank_021:
MSHR contents

In Dram Latency Queue (total = 0): 
DRAM[10]: 16 bks, busW=4 BL=8 CL=16, tRRD=8 tCCD=2, tRCD=16 tRAS=37 tRP=16 tRC=52
n_cmd=128797 n_nop=117594 n_act=228 n_pre=212 n_ref_event=0 n_req=10582 n_rd=10521 n_rd_L2_A=0 n_write=0 n_wr_bk=244 bw_util=0.1672
n_activity=56011 dram_eff=0.3844
bk0: 722a 125822i bk1: 725a 125782i bk2: 684a 126218i bk3: 686a 126233i bk4: 652a 127124i bk5: 652a 127148i bk6: 640a 127284i bk7: 640a 127361i bk8: 640a 127352i bk9: 640a 127382i bk10: 640a 127383i bk11: 640a 127306i bk12: 640a 127365i bk13: 640a 127232i bk14: 640a 127341i bk15: 640a 127291i 

------------------------------------------------------------------------

Row_Buffer_Locality = 0.979966
Row_Buffer_Locality_read = 0.982796
Row_Buffer_Locality_write = 0.491803
Bank_Level_Parallism = 1.329087
Bank_Level_Parallism_Col = 1.260134
Bank_Level_Parallism_Ready = 1.066153
write_to_read_ratio_blp_rw_average = 0.045306
GrpLevelPara = 1.248822 

BW Util details:
bwutil = 0.167162 
total_CMD = 128797 
util_bw = 21530 
Wasted_Col = 10720 
Wasted_Row = 1415 
Idle = 95132 

BW Util Bottlenecks: 
RCDc_limit = 2448 
RCDWRc_limit = 190 
WTRc_limit = 388 
RTWc_limit = 938 
CCDLc_limit = 8405 
rwq = 0 
CCDLc_limit_alone = 8347 
WTRc_limit_alone = 365 
RTWc_limit_alone = 903 

Commands details: 
total_CMD = 128797 
n_nop = 117594 
Read = 10521 
Write = 0 
L2_Alloc = 0 
L2_WB = 244 
n_act = 228 
n_pre = 212 
n_ref = 0 
n_req = 10582 
total_req = 10765 

Dual Bus Interface Util: 
issued_total_row = 440 
issued_total_col = 10765 
Row_Bus_Util =  0.003416 
CoL_Bus_Util = 0.083581 
Either_Row_CoL_Bus_Util = 0.086982 
Issued_on_Two_Bus_Simul_Util = 0.000016 
issued_two_Eff = 0.000179 
queue_avg = 0.225106 


dram_util_bins: 0 0 0 0 0 0 0 0 0 0
dram_eff_bins: 0 0 0 0 0 0 0 0 0 0
mrqq: max=14 avg=0.225106
Memory Partition 11: 
Cache L2_bank_022:
MSHR contents

Cache L2_bank_023:
MSHR contents

In Dram Latency Queue (total = 0): 
DRAM[11]: 16 bks, busW=4 BL=8 CL=16, tRRD=8 tCCD=2, tRCD=16 tRAS=37 tRP=16 tRC=52
n_cmd=128797 n_nop=117585 n_act=232 n_pre=216 n_ref_event=0 n_req=10579 n_rd=10517 n_rd_L2_A=0 n_write=0 n_wr_bk=248 bw_util=0.1672
n_activity=56589 dram_eff=0.3805
bk0: 723a 125742i bk1: 722a 125782i bk2: 684a 126175i bk3: 684a 126188i bk4: 652a 127156i bk5: 652a 127104i bk6: 640a 127317i bk7: 640a 127266i bk8: 640a 127374i bk9: 640a 127369i bk10: 640a 127342i bk11: 640a 127350i bk12: 640a 127353i bk13: 640a 127292i bk14: 640a 127335i bk15: 640a 127421i 

------------------------------------------------------------------------

Row_Buffer_Locality = 0.979582
Row_Buffer_Locality_read = 0.982504
Row_Buffer_Locality_write = 0.483871
Bank_Level_Parallism = 1.321996
Bank_Level_Parallism_Col = 1.256693
Bank_Level_Parallism_Ready = 1.062842
write_to_read_ratio_blp_rw_average = 0.045173
GrpLevelPara = 1.246569 

BW Util details:
bwutil = 0.167162 
total_CMD = 128797 
util_bw = 21530 
Wasted_Col = 10714 
Wasted_Row = 1599 
Idle = 94954 

BW Util Bottlenecks: 
RCDc_limit = 2422 
RCDWRc_limit = 188 
WTRc_limit = 366 
RTWc_limit = 907 
CCDLc_limit = 8399 
rwq = 0 
CCDLc_limit_alone = 8379 
WTRc_limit_alone = 360 
RTWc_limit_alone = 893 

Commands details: 
total_CMD = 128797 
n_nop = 117585 
Read = 10517 
Write = 0 
L2_Alloc = 0 
L2_WB = 248 
n_act = 232 
n_pre = 216 
n_ref = 0 
n_req = 10579 
total_req = 10765 

Dual Bus Interface Util: 
issued_total_row = 448 
issued_total_col = 10765 
Row_Bus_Util =  0.003478 
CoL_Bus_Util = 0.083581 
Either_Row_CoL_Bus_Util = 0.087052 
Issued_on_Two_Bus_Simul_Util = 0.000008 
issued_two_Eff = 0.000089 
queue_avg = 0.225634 


dram_util_bins: 0 0 0 0 0 0 0 0 0 0
dram_eff_bins: 0 0 0 0 0 0 0 0 0 0
mrqq: max=17 avg=0.225634

========= L2 cache stats =========
L2_cache_bank[0]: Access = 7824, Miss = 5549, Miss_rate = 0.709, Pending_hits = 1695, Reservation_fails = 0
L2_cache_bank[1]: Access = 7783, Miss = 5539, Miss_rate = 0.712, Pending_hits = 1667, Reservation_fails = 0
L2_cache_bank[2]: Access = 7817, Miss = 5535, Miss_rate = 0.708, Pending_hits = 1675, Reservation_fails = 0
L2_cache_bank[3]: Access = 7814, Miss = 5534, Miss_rate = 0.708, Pending_hits = 1682, Reservation_fails = 0
L2_cache_bank[4]: Access = 7804, Miss = 5530, Miss_rate = 0.709, Pending_hits = 1706, Reservation_fails = 0
L2_cache_bank[5]: Access = 7803, Miss = 5539, Miss_rate = 0.710, Pending_hits = 1698, Reservation_fails = 0
L2_cache_bank[6]: Access = 7838, Miss = 5541, Miss_rate = 0.707, Pending_hits = 1719, Reservation_fails = 0
L2_cache_bank[7]: Access = 7825, Miss = 5541, Miss_rate = 0.708, Pending_hits = 1678, Reservation_fails = 0
L2_cache_bank[8]: Access = 7765, Miss = 5542, Miss_rate = 0.714, Pending_hits = 1671, Reservation_fails = 0
L2_cache_bank[9]: Access = 7785, Miss = 5543, Miss_rate = 0.712, Pending_hits = 1654, Reservation_fails = 0
L2_cache_bank[10]: Access = 7784, Miss = 5538, Miss_rate = 0.711, Pending_hits = 1621, Reservation_fails = 0
L2_cache_bank[11]: Access = 7757, Miss = 5532, Miss_rate = 0.713, Pending_hits = 1588, Reservation_fails = 0
L2_cache_bank[12]: Access = 7768, Miss = 5537, Miss_rate = 0.713, Pending_hits = 1621, Reservation_fails = 0
L2_cache_bank[13]: Access = 7785, Miss = 5541, Miss_rate = 0.712, Pending_hits = 1646, Reservation_fails = 0
L2_cache_bank[14]: Access = 7749, Miss = 5526, Miss_rate = 0.713, Pending_hits = 1651, Reservation_fails = 0
L2_cache_bank[15]: Access = 7755, Miss = 5527, Miss_rate = 0.713, Pending_hits = 1634, Reservation_fails = 0
L2_cache_bank[16]: Access = 7769, Miss = 5538, Miss_rate = 0.713, Pending_hits = 1636, Reservation_fails = 0
L2_cache_bank[17]: Access = 7746, Miss = 5531, Miss_rate = 0.714, Pending_hits = 1594, Reservation_fails = 0
L2_cache_bank[18]: Access = 7730, Miss = 5545, Miss_rate = 0.717, Pending_hits = 1590, Reservation_fails = 0
L2_cache_bank[19]: Access = 7744, Miss = 5537, Miss_rate = 0.715, Pending_hits = 1590, Reservation_fails = 0
L2_cache_bank[20]: Access = 7743, Miss = 5537, Miss_rate = 0.715, Pending_hits = 1591, Reservation_fails = 0
L2_cache_bank[21]: Access = 7723, Miss = 5551, Miss_rate = 0.719, Pending_hits = 1585, Reservation_fails = 0
L2_cache_bank[22]: Access = 7731, Miss = 5536, Miss_rate = 0.716, Pending_hits = 1590, Reservation_fails = 0
L2_cache_bank[23]: Access = 7739, Miss = 5536, Miss_rate = 0.715, Pending_hits = 1635, Reservation_fails = 0
L2_total_cache_accesses = 186581
L2_total_cache_misses = 132905
L2_total_cache_miss_rate = 0.7123
L2_total_cache_pending_hits = 39417
L2_total_cache_reservation_fails = 0
L2_total_cache_breakdown:
	L2_cache_stats_breakdown[GLOBAL_ACC_R][HIT] = 13010
	L2_cache_stats_breakdown[GLOBAL_ACC_R][HIT_RESERVED] = 39030
	L2_cache_stats_breakdown[GLOBAL_ACC_R][MISS] = 31251
	L2_cache_stats_breakdown[GLOBAL_ACC_R][RESERVATION_FAIL] = 0
	L2_cache_stats_breakdown[GLOBAL_ACC_R][SECTOR_MISS] = 94979
	L2_cache_stats_breakdown[LOCAL_ACC_R][HIT] = 0
	L2_cache_stats_breakdown[LOCAL_ACC_R][HIT_RESERVED] = 0
	L2_cache_stats_breakdown[LOCAL_ACC_R][MISS] = 0
	L2_cache_stats_breakdown[LOCAL_ACC_R][RESERVATION_FAIL] = 0
	L2_cache_stats_breakdown[LOCAL_ACC_R][SECTOR_MISS] = 0
	L2_cache_stats_breakdown[CONST_ACC_R][HIT] = 0
	L2_cache_stats_breakdown[CONST_ACC_R][HIT_RESERVED] = 26
	L2_cache_stats_breakdown[CONST_ACC_R][MISS] = 1
	L2_cache_stats_breakdown[CONST_ACC_R][RESERVATION_FAIL] = 0
	L2_cache_stats_breakdown[CONST_ACC_R][SECTOR_MISS] = 1
	L2_cache_stats_breakdown[TEXTURE_ACC_R][HIT] = 0
	L2_cache_stats_breakdown[TEXTURE_ACC_R][HIT_RESERVED] = 0
	L2_cache_stats_breakdown[TEXTURE_ACC_R][MISS] = 0
	L2_cache_stats_breakdown[TEXTURE_ACC_R][RESERVATION_FAIL] = 0
	L2_cache_stats_breakdown[TEXTURE_ACC_R][SECTOR_MISS] = 0
	L2_cache_stats_breakdown[GLOBAL_ACC_W][HIT] = 1194
	L2_cache_stats_breakdown[GLOBAL_ACC_W][HIT_RESERVED] = 0
	L2_cache_stats_breakdown[GLOBAL_ACC_W][MISS] = 1324
	L2_cache_stats_breakdown[GLOBAL_ACC_W][RESERVATION_FAIL] = 0
	L2_cache_stats_breakdown[GLOBAL_ACC_W][SECTOR_MISS] = 5317
	L2_cache_stats_breakdown[LOCAL_ACC_W][HIT] = 0
	L2_cache_stats_breakdown[LOCAL_ACC_W][HIT_RESERVED] = 0
	L2_cache_stats_breakdown[LOCAL_ACC_W][MISS] = 0
	L2_cache_stats_breakdown[LOCAL_ACC_W][RESERVATION_FAIL] = 0
	L2_cache_stats_breakdown[LOCAL_ACC_W][SECTOR_MISS] = 0
	L2_cache_stats_breakdown[L1_WRBK_ACC][HIT] = 0
	L2_cache_stats_breakdown[L1_WRBK_ACC][HIT_RESERVED] = 0
	L2_cache_stats_breakdown[L1_WRBK_ACC][MISS] = 0
	L2_cache_stats_breakdown[L1_WRBK_ACC][RESERVATION_FAIL] = 0
	L2_cache_stats_breakdown[L1_WRBK_ACC][SECTOR_MISS] = 0
	L2_cache_stats_breakdown[L2_WRBK_ACC][HIT] = 0
	L2_cache_stats_breakdown[L2_WRBK_ACC][HIT_RESERVED] = 0
	L2_cache_stats_breakdown[L2_WRBK_ACC][MISS] = 0
	L2_cache_stats_breakdown[L2_WRBK_ACC][RESERVATION_FAIL] = 0
	L2_cache_stats_breakdown[L2_WRBK_ACC][SECTOR_MISS] = 0
	L2_cache_stats_breakdown[INST_ACC_R][HIT] = 55
	L2_cache_stats_breakdown[INST_ACC_R][HIT_RESERVED] = 361
	L2_cache_stats_breakdown[INST_ACC_R][MISS] = 8
	L2_cache_stats_breakdown[INST_ACC_R][RESERVATION_FAIL] = 0
	L2_cache_stats_breakdown[INST_ACC_R][SECTOR_MISS] = 24
	L2_cache_stats_breakdown[L1_WR_ALLOC_R][HIT] = 0
	L2_cache_stats_breakdown[L1_WR_ALLOC_R][HIT_RESERVED] = 0
	L2_cache_stats_breakdown[L1_WR_ALLOC_R][MISS] = 0
	L2_cache_stats_breakdown[L1_WR_ALLOC_R][RESERVATION_FAIL] = 0
	L2_cache_stats_breakdown[L1_WR_ALLOC_R][SECTOR_MISS] = 0
	L2_cache_stats_breakdown[L2_WR_ALLOC_R][HIT] = 0
	L2_cache_stats_breakdown[L2_WR_ALLOC_R][HIT_RESERVED] = 0
	L2_cache_stats_breakdown[L2_WR_ALLOC_R][MISS] = 0
	L2_cache_stats_breakdown[L2_WR_ALLOC_R][RESERVATION_FAIL] = 0
	L2_cache_stats_breakdown[L2_WR_ALLOC_R][SECTOR_MISS] = 0
	L2_cache_stats_breakdown[GLOBAL_ACC_R][TOTAL_ACCESS] = 178270
	L2_cache_stats_breakdown[CONST_ACC_R][TOTAL_ACCESS] = 28
	L2_cache_stats_breakdown[GLOBAL_ACC_W][TOTAL_ACCESS] = 7835
	L2_cache_stats_breakdown[INST_ACC_R][TOTAL_ACCESS] = 448
L2_total_cache_reservation_fail_breakdown:
L2_cache_data_port_util = 0.008
L2_cache_fill_port_util = 0.073

icnt_total_pkts_mem_to_simt=186581
icnt_total_pkts_simt_to_mem=186231
LD_mem_lat_dist  0 0 0 0 0 0 0 0 0 0 0 0 0 0 0 0 0 0 0 0 0 0 0 0 0 0 0
ST_mem_lat_dist  0 0 0 0 0 0 0 0 0 0 0 0 0 0 0 0 0 0 0 0 0 0 0 0 0 0 0
----------------------------Interconnect-DETAILS--------------------------------
Class 0:
Packet latency average = 7.03398
	minimum = 5
	maximum = 56
Network latency average = 7.03398
	minimum = 5
	maximum = 56
Slowest packet = 310096
Flit latency average = 7.03398
	minimum = 5
	maximum = 56
Slowest flit = 310096
Fragmentation average = 0
	minimum = 0
	maximum = 0
Injected packet rate average = 0.134868
	minimum = 0.104156 (at node 35)
	maximum = 0.234276 (at node 7)
Accepted packet rate average = 0.134868
	minimum = 0.104156 (at node 35)
	maximum = 0.234276 (at node 7)
Injected flit rate average = 0.134868
	minimum = 0.104156 (at node 35)
	maximum = 0.234276 (at node 7)
Accepted flit rate average= 0.134868
	minimum = 0.104156 (at node 35)
	maximum = 0.234276 (at node 7)
Injected packet length average = 1
Accepted packet length average = 1
Total in-flight flits = 0 (0 measured)
====== Overall Traffic Statistics ======
====== Traffic class 0 ======
Packet latency average = 7.75273 (5 samples)
	minimum = 5 (5 samples)
	maximum = 77.2 (5 samples)
Network latency average = 7.75206 (5 samples)
	minimum = 5 (5 samples)
	maximum = 77.2 (5 samples)
Flit latency average = 7.75206 (5 samples)
	minimum = 5 (5 samples)
	maximum = 77.2 (5 samples)
Fragmentation average = 0 (5 samples)
	minimum = 0 (5 samples)
	maximum = 0 (5 samples)
Injected packet rate average = 0.136941 (5 samples)
	minimum = 0.10724 (5 samples)
	maximum = 0.227274 (5 samples)
Accepted packet rate average = 0.136941 (5 samples)
	minimum = 0.10724 (5 samples)
	maximum = 0.227588 (5 samples)
Injected flit rate average = 0.136941 (5 samples)
	minimum = 0.10724 (5 samples)
	maximum = 0.227274 (5 samples)
Accepted flit rate average = 0.136941 (5 samples)
	minimum = 0.10724 (5 samples)
	maximum = 0.227588 (5 samples)
Injected packet size average = 1 (5 samples)
Accepted packet size average = 1 (5 samples)
Hops average = 1 (5 samples)
----------------------------END-of-Interconnect-DETAILS-------------------------


gpgpu_simulation_time = 0 days, 0 hrs, 1 min, 56 sec (116 sec)
gpgpu_simulation_rate = 542358 (inst/sec)
gpgpu_simulation_rate = 618 (cycle/sec)
gpgpu_silicon_slowdown = 1354368x
GPGPU-Sim: synchronize waiting for inactive GPU simulation
GPGPU-Sim API: Stream Manager State
GPGPU-Sim: detected inactive GPU simulation thread
GPGPU-Sim: *** exit detected ***
