

        *** GPGPU-Sim Simulator Version 4.0.0  [build gpgpu-sim_git-commit-90ec3399763d7c8512cfe7dc193473086c38ca38_modified_0.0] ***


GPGPU-Sim PTX: simulation mode 0 (can change with PTX_SIM_MODE_FUNC environment variable:
               1=functional simulation only, 0=detailed performance simulator)
GPGPU-Sim PTX: overriding embedded ptx with ptx file (PTX_SIM_USE_PTX_FILE is set)
GPGPU-Sim: Configuration options:

-save_embedded_ptx                      0 # saves ptx files embedded in binary as <n>.ptx
-keep                                   0 # keep intermediate files created by GPGPU-Sim when interfacing with external programs
-gpgpu_ptx_save_converted_ptxplus                    0 # Saved converted ptxplus to a file
-gpgpu_occupancy_sm_number                   62 # The SM number to pass to ptxas when getting register usage for computing GPU occupancy. This parameter is required in the config.
-ptx_opcode_latency_int      4,13,4,5,145,32 # Opcode latencies for integers <ADD,MAX,MUL,MAD,DIV,SHFL>Default 1,1,19,25,145,32
-ptx_opcode_latency_fp          4,13,4,5,39 # Opcode latencies for single precision floating points <ADD,MAX,MUL,MAD,DIV>Default 1,1,1,1,30
-ptx_opcode_latency_dp         8,19,8,8,330 # Opcode latencies for double precision floating points <ADD,MAX,MUL,MAD,DIV>Default 8,8,8,8,335
-ptx_opcode_latency_sfu                  200 # Opcode latencies for SFU instructionsDefault 8
-ptx_opcode_latency_tesnor                   64 # Opcode latencies for Tensor instructionsDefault 64
-ptx_opcode_initiation_int          1,1,1,1,4,4 # Opcode initiation intervals for integers <ADD,MAX,MUL,MAD,DIV,SHFL>Default 1,1,4,4,32,4
-ptx_opcode_initiation_fp            1,2,1,1,4 # Opcode initiation intervals for single precision floating points <ADD,MAX,MUL,MAD,DIV>Default 1,1,1,1,5
-ptx_opcode_initiation_dp          2,8,8,8,130 # Opcode initiation intervals for double precision floating points <ADD,MAX,MUL,MAD,DIV>Default 8,8,8,8,130
-ptx_opcode_initiation_sfu                    2 # Opcode initiation intervals for sfu instructionsDefault 8
-ptx_opcode_initiation_tensor                   64 # Opcode initiation intervals for tensor instructionsDefault 64
-cdp_latency         7200,8000,100,12000,1600 # CDP API latency <cudaStreamCreateWithFlags, cudaGetParameterBufferV2_init_perWarp, cudaGetParameterBufferV2_perKernel, cudaLaunchDeviceV2_init_perWarp, cudaLaunchDevicV2_perKernel>Default 7200,8000,100,12000,1600
-network_mode                           1 # Interconnection network mode
-inter_config_file   config_kepler_islip.icnt # Interconnection network config file
-icnt_in_buffer_limit                   64 # in_buffer_limit
-icnt_out_buffer_limit                   64 # out_buffer_limit
-icnt_subnets                           2 # subnets
-icnt_arbiter_algo                      1 # arbiter_algo
-icnt_verbose                           0 # inct_verbose
-icnt_grant_cycles                      1 # grant_cycles
-gpgpu_ptx_use_cuobjdump                    1 # Use cuobjdump to extract ptx and sass from binaries
-gpgpu_experimental_lib_support                    0 # Try to extract code from cuda libraries [Broken because of unknown cudaGetExportTable]
-checkpoint_option                      0 #  checkpointing flag (0 = no checkpoint)
-checkpoint_kernel                      1 #  checkpointing during execution of which kernel (1- 1st kernel)
-checkpoint_CTA                         0 #  checkpointing after # of CTA (< less than total CTA)
-resume_option                          0 #  resume flag (0 = no resume)
-resume_kernel                          0 #  Resume from which kernel (1= 1st kernel)
-resume_CTA                             0 #  resume from which CTA 
-checkpoint_CTA_t                       0 #  resume from which CTA 
-checkpoint_insn_Y                      0 #  resume from which CTA 
-gpgpu_ptx_convert_to_ptxplus                    0 # Convert SASS (native ISA) to ptxplus and run ptxplus
-gpgpu_ptx_force_max_capability                   35 # Force maximum compute capability
-gpgpu_ptx_inst_debug_to_file                    0 # Dump executed instructions' debug information to file
-gpgpu_ptx_inst_debug_file       inst_debug.txt # Executed instructions' debug output file
-gpgpu_ptx_inst_debug_thread_uid                    1 # Thread UID for executed instructions' debug output
-gpgpu_simd_model                       1 # 1 = post-dominator
-gpgpu_shader_core_pipeline              2048:32 # shader core pipeline config, i.e., {<nthread>:<warpsize>}
-gpgpu_tex_cache:l1  N:16:128:24,L:R:m:N:L,T:128:4,128:2 # per-shader L1 texture cache  (READ-ONLY) config  {<nsets>:<bsize>:<assoc>,<rep>:<wr>:<alloc>:<wr_alloc>,<mshr>:<N>:<merge>,<mq>:<rf>}
-gpgpu_const_cache:l1 N:128:64:2,L:R:f:N:L,S:2:64,4 # per-shader L1 constant memory cache  (READ-ONLY) config  {<nsets>:<bsize>:<assoc>,<rep>:<wr>:<alloc>:<wr_alloc>,<mshr>:<N>:<merge>,<mq>} 
-gpgpu_cache:il1     N:8:128:4,L:R:f:N:L,S:2:48,4 # shader L1 instruction cache config  {<nsets>:<bsize>:<assoc>,<rep>:<wr>:<alloc>:<wr_alloc>,<mshr>:<N>:<merge>,<mq>} 
-gpgpu_cache:dl1     S:4:128:32,L:L:s:N:L,A:256:8,16:0,32 # per-shader L1 data cache config  {<nsets>:<bsize>:<assoc>,<rep>:<wr>:<alloc>:<wr_alloc>,<mshr>:<N>:<merge>,<mq> | none}
-gpgpu_l1_banks                         1 # The number of L1 cache banks
-gpgpu_l1_banks_byte_interleaving                   32 # l1 banks byte interleaving granularity
-gpgpu_l1_banks_hashing_function                    0 # l1 banks hashing function
-gpgpu_l1_latency                      82 # L1 Hit Latency
-gpgpu_smem_latency                     3 # smem Latency
-gpgpu_cache:dl1PrefL1 S:4:128:96,L:L:s:N:L,A:256:8,16:0,32 # per-shader L1 data cache config  {<nsets>:<bsize>:<assoc>,<rep>:<wr>:<alloc>:<wr_alloc>,<mshr>:<N>:<merge>,<mq> | none}
-gpgpu_cache:dl1PrefShared S:4:128:32,L:L:s:N:L,A:256:8,16:0,32 # per-shader L1 data cache config  {<nsets>:<bsize>:<assoc>,<rep>:<wr>:<alloc>:<wr_alloc>,<mshr>:<N>:<merge>,<mq> | none}
-gpgpu_gmem_skip_L1D                    1 # global memory access skip L1D cache (implements -Xptxas -dlcm=cg, default=no skip)
-gpgpu_perfect_mem                      0 # enable perfect memory mode (no cache miss)
-n_regfile_gating_group                    4 # group of lanes that should be read/written together)
-gpgpu_clock_gated_reg_file                    0 # enable clock gated reg file for power calculations
-gpgpu_clock_gated_lanes                    0 # enable clock gated lanes for power calculations
-gpgpu_shader_registers                65536 # Number of registers per shader core. Limits number of concurrent CTAs. (default 8192)
-gpgpu_registers_per_block                 8192 # Maximum number of registers per CTA. (default 8192)
-gpgpu_ignore_resources_limitation                    1 # gpgpu_ignore_resources_limitation (default 0)
-gpgpu_shader_cta                      16 # Maximum number of concurrent CTAs in shader (default 8)
-gpgpu_num_cta_barriers                   16 # Maximum number of named barriers per CTA (default 16)
-gpgpu_n_clusters                      14 # number of processing clusters
-gpgpu_n_cores_per_cluster                    1 # number of simd cores per cluster
-gpgpu_n_cluster_ejection_buffer_size                   32 # number of packets in ejection buffer
-gpgpu_n_ldst_response_buffer_size                    2 # number of response packets in ld/st unit ejection buffer
-gpgpu_shmem_per_block                49152 # Size of shared memory per thread block or CTA (default 48kB)
-gpgpu_shmem_size                   49152 # Size of shared memory per shader core (default 16kB)
-gpgpu_adaptive_cache_config                    0 # adaptive_cache_config
-gpgpu_shmem_sizeDefault                49152 # Size of shared memory per shader core (default 16kB)
-gpgpu_shmem_size_PrefL1                16384 # Size of shared memory per shader core (default 16kB)
-gpgpu_shmem_size_PrefShared                49152 # Size of shared memory per shader core (default 16kB)
-gpgpu_shmem_num_banks                   32 # Number of banks in the shared memory in each shader core (default 16)
-gpgpu_shmem_limited_broadcast                    0 # Limit shared memory to do one broadcast per cycle (default on)
-gpgpu_shmem_warp_parts                    1 # Number of portions a warp is divided into for shared memory bank conflict check 
-gpgpu_mem_unit_ports                    1 # The number of memory transactions allowed per core cycle
-gpgpu_shmem_warp_parts                    1 # Number of portions a warp is divided into for shared memory bank conflict check 
-gpgpu_warpdistro_shader                   -1 # Specify which shader core to collect the warp size distribution from
-gpgpu_warp_issue_shader                    0 # Specify which shader core to collect the warp issue distribution from
-gpgpu_local_mem_map                    1 # Mapping from local memory space address to simulated GPU physical address space (default = enabled)
-gpgpu_num_reg_banks                   16 # Number of register banks (default = 8)
-gpgpu_reg_bank_use_warp_id                    0 # Use warp ID in mapping registers to banks (default = off)
-gpgpu_sub_core_model                    0 # Sub Core Volta/Pascal model (default = off)
-gpgpu_enable_specialized_operand_collector                    1 # enable_specialized_operand_collector
-gpgpu_operand_collector_num_units_sp                   12 # number of collector units (default = 4)
-gpgpu_operand_collector_num_units_dp                    6 # number of collector units (default = 0)
-gpgpu_operand_collector_num_units_sfu                    6 # number of collector units (default = 4)
-gpgpu_operand_collector_num_units_int                    0 # number of collector units (default = 0)
-gpgpu_operand_collector_num_units_tensor_core                    4 # number of collector units (default = 4)
-gpgpu_operand_collector_num_units_mem                    8 # number of collector units (default = 2)
-gpgpu_operand_collector_num_units_gen                    0 # number of collector units (default = 0)
-gpgpu_operand_collector_num_in_ports_sp                    2 # number of collector unit in ports (default = 1)
-gpgpu_operand_collector_num_in_ports_dp                    1 # number of collector unit in ports (default = 0)
-gpgpu_operand_collector_num_in_ports_sfu                    2 # number of collector unit in ports (default = 1)
-gpgpu_operand_collector_num_in_ports_int                    0 # number of collector unit in ports (default = 0)
-gpgpu_operand_collector_num_in_ports_tensor_core                    1 # number of collector unit in ports (default = 1)
-gpgpu_operand_collector_num_in_ports_mem                    1 # number of collector unit in ports (default = 1)
-gpgpu_operand_collector_num_in_ports_gen                    0 # number of collector unit in ports (default = 0)
-gpgpu_operand_collector_num_out_ports_sp                    2 # number of collector unit in ports (default = 1)
-gpgpu_operand_collector_num_out_ports_dp                    1 # number of collector unit in ports (default = 0)
-gpgpu_operand_collector_num_out_ports_sfu                    2 # number of collector unit in ports (default = 1)
-gpgpu_operand_collector_num_out_ports_int                    0 # number of collector unit in ports (default = 0)
-gpgpu_operand_collector_num_out_ports_tensor_core                    1 # number of collector unit in ports (default = 1)
-gpgpu_operand_collector_num_out_ports_mem                    1 # number of collector unit in ports (default = 1)
-gpgpu_operand_collector_num_out_ports_gen                    0 # number of collector unit in ports (default = 0)
-gpgpu_coalesce_arch                   35 # Coalescing arch (GT200 = 13, Fermi = 20)
-gpgpu_num_sched_per_core                    4 # Number of warp schedulers per core
-gpgpu_max_insn_issue_per_warp                    2 # Max number of instructions that can be issued per warp in one cycle by scheduler (either 1 or 2)
-gpgpu_dual_issue_diff_exec_units                    0 # should dual issue use two different execution unit resources (Default = 1)
-gpgpu_simt_core_sim_order                    1 # Select the simulation order of cores in a cluster (0=Fix, 1=Round-Robin)
-gpgpu_pipeline_widths 6,4,0,2,1,6,4,0,2,1,12 # Pipeline widths ID_OC_SP,ID_OC_DP,ID_OC_INT,ID_OC_SFU,ID_OC_MEM,OC_EX_SP,OC_EX_DP,OC_EX_INT,OC_EX_SFU,OC_EX_MEM,EX_WB,ID_OC_TENSOR_CORE,OC_EX_TENSOR_CORE
-gpgpu_tensor_core_avail                    0 # Tensor Core Available (default=0)
-gpgpu_num_sp_units                     6 # Number of SP units (default=1)
-gpgpu_num_dp_units                     4 # Number of DP units (default=0)
-gpgpu_num_int_units                    0 # Number of INT units (default=0)
-gpgpu_num_sfu_units                    2 # Number of SF units (default=1)
-gpgpu_num_tensor_core_units                    0 # Number of tensor_core units (default=1)
-gpgpu_num_mem_units                    1 # Number if ldst units (default=1) WARNING: not hooked up to anything
-gpgpu_scheduler                      gto # Scheduler configuration: < lrr | gto | two_level_active > If two_level_active:<num_active_warps>:<inner_prioritization>:<outer_prioritization>For complete list of prioritization values see shader.h enum scheduler_prioritization_typeDefault: gto
-gpgpu_concurrent_kernel_sm                    0 # Support concurrent kernels on a SM (default = disabled)
-gpgpu_perfect_inst_const_cache                    0 # perfect inst and const cache mode, so all inst and const hits in the cache(default = disabled)
-gpgpu_inst_fetch_throughput                    8 # the number of fetched intruction per warp each cycle
-gpgpu_reg_file_port_throughput                    2 # the number ports of the register file
-specialized_unit_1         0,4,4,4,4,BRA # specialized unit config {<enabled>,<num_units>:<latency>:<initiation>,<ID_OC_SPEC>:<OC_EX_SPEC>,<NAME>}
-specialized_unit_2         0,4,4,4,4,BRA # specialized unit config {<enabled>,<num_units>:<latency>:<initiation>,<ID_OC_SPEC>:<OC_EX_SPEC>,<NAME>}
-specialized_unit_3         0,4,4,4,4,BRA # specialized unit config {<enabled>,<num_units>:<latency>:<initiation>,<ID_OC_SPEC>:<OC_EX_SPEC>,<NAME>}
-specialized_unit_4         0,4,4,4,4,BRA # specialized unit config {<enabled>,<num_units>:<latency>:<initiation>,<ID_OC_SPEC>:<OC_EX_SPEC>,<NAME>}
-specialized_unit_5         0,4,4,4,4,BRA # specialized unit config {<enabled>,<num_units>:<latency>:<initiation>,<ID_OC_SPEC>:<OC_EX_SPEC>,<NAME>}
-specialized_unit_6         0,4,4,4,4,BRA # specialized unit config {<enabled>,<num_units>:<latency>:<initiation>,<ID_OC_SPEC>:<OC_EX_SPEC>,<NAME>}
-specialized_unit_7         0,4,4,4,4,BRA # specialized unit config {<enabled>,<num_units>:<latency>:<initiation>,<ID_OC_SPEC>:<OC_EX_SPEC>,<NAME>}
-specialized_unit_8         0,4,4,4,4,BRA # specialized unit config {<enabled>,<num_units>:<latency>:<initiation>,<ID_OC_SPEC>:<OC_EX_SPEC>,<NAME>}
-gpgpu_perf_sim_memcpy                    1 # Fill the L2 cache on memcpy
-gpgpu_simple_dram_model                    0 # simple_dram_model with fixed latency and BW
-gpgpu_dram_scheduler                    1 # 0 = fifo, 1 = FR-FCFS (defaul)
-gpgpu_dram_partition_queues          32:32:32:32 # i2$:$2d:d2$:$2i
-l2_ideal                               0 # Use a ideal L2 cache that always hit
-gpgpu_cache:dl2     S:32:128:16,L:B:m:L:P,A:256:64,16:0,32 # unified banked L2 data cache config  {<nsets>:<bsize>:<assoc>,<rep>:<wr>:<alloc>:<wr_alloc>,<mshr>:<N>:<merge>,<mq>}
-gpgpu_cache:dl2_texture_only                    0 # L2 cache used for texture only
-gpgpu_n_mem                           12 # number of memory modules (e.g. memory controllers) in gpu
-gpgpu_n_sub_partition_per_mchannel                    2 # number of memory subpartition in each memory module
-gpgpu_n_mem_per_ctrlr                    1 # number of memory chips per memory controller
-gpgpu_memlatency_stat                   14 # track and display latency statistics 0x2 enables MC, 0x4 enables queue logs
-gpgpu_frfcfs_dram_sched_queue_size                   64 # 0 = unlimited (default); # entries per chip
-gpgpu_dram_return_queue_size                   64 # 0 = unlimited (default); # entries per chip
-gpgpu_dram_buswidth                    4 # default = 4 bytes (8 bytes per cycle at DDR)
-gpgpu_dram_burst_length                    8 # Burst length of each DRAM request (default = 4 data bus cycle)
-dram_data_command_freq_ratio                    4 # Frequency ratio between DRAM data bus and command bus (default = 2 times, i.e. DDR)
-gpgpu_dram_timing_opt nbk=16:CCD=2:RRD=8:RCD=16:RAS=37:RP=16:RC=52: CL=16:WL=6:CDLR=7:WR=16:nbkgrp=4:CCDL=4:RTPL=3 # DRAM timing parameters = {nbk:tCCD:tRRD:tRCD:tRAS:tRP:tRC:CL:WL:tCDLR:tWR:nbkgrp:tCCDL:tRTPL}
-gpgpu_l2_rop_latency                  120 # ROP queue latency (default 85)
-dram_latency                         100 # DRAM latency (default 30)
-dram_dual_bus_interface                    0 # dual_bus_interface (default = 0) 
-dram_bnk_indexing_policy                    0 # dram_bnk_indexing_policy (0 = normal indexing, 1 = Xoring with the higher bits) (Default = 0)
-dram_bnkgrp_indexing_policy                    1 # dram_bnkgrp_indexing_policy (0 = take higher bits, 1 = take lower bits) (Default = 0)
-dram_seperate_write_queue_enable                    0 # Seperate_Write_Queue_Enable
-dram_write_queue_size             32:28:16 # Write_Queue_Size
-dram_elimnate_rw_turnaround                    0 # elimnate_rw_turnaround i.e set tWTR and tRTW = 0
-icnt_flit_size                        40 # icnt_flit_size
-gpgpu_mem_addr_mapping dramid@8;00000000.00000000.00000000.00000000.0000RRRR.RRRRRRRR.RBBBCCCC.BCCSSSSS # mapping memory address to dram model {dramid@<start bit>;<memory address map>}
-gpgpu_mem_addr_test                    0 # run sweep test to check address mapping for aliased address
-gpgpu_mem_address_mask                    1 # 0 = old addressing mask, 1 = new addressing mask, 2 = new add. mask + flipped bank sel and chip sel bits
-gpgpu_memory_partition_indexing                    0 # 0 = no indexing, 1 = bitwise xoring, 2 = IPoly, 3 = custom indexing
-gpuwattch_xml_file         gpuwattch.xml # GPUWattch XML file
-power_simulation_enabled                    1 # Turn on power simulator (1=On, 0=Off)
-power_per_cycle_dump                    0 # Dump detailed power output each cycle
-power_trace_enabled                    0 # produce a file for the power trace (1=On, 0=Off)
-power_trace_zlevel                     6 # Compression level of the power trace output log (0=no comp, 9=highest)
-steady_power_levels_enabled                    0 # produce a file for the steady power levels (1=On, 0=Off)
-steady_state_definition                  8:4 # allowed deviation:number of samples
-gpgpu_max_cycle                        0 # terminates gpu simulation early (0 = no limit)
-gpgpu_max_insn                         0 # terminates gpu simulation early (0 = no limit)
-gpgpu_max_cta                          0 # terminates gpu simulation early (0 = no limit)
-gpgpu_max_completed_cta                    0 # terminates gpu simulation early (0 = no limit)
-gpgpu_runtime_stat                   500 # display runtime statistics such as dram utilization {<freq>:<flag>}
-liveness_message_freq                    1 # Minimum number of seconds between simulation liveness messages (0 = always print)
-gpgpu_compute_capability_major                    3 # Major compute capability version number
-gpgpu_compute_capability_minor                    5 # Minor compute capability version number
-gpgpu_flush_l1_cache                    1 # Flush L1 cache at the end of each kernel call
-gpgpu_flush_l2_cache                    0 # Flush L2 cache at the end of each kernel call
-gpgpu_deadlock_detect                    1 # Stop the simulation at deadlock (1=on (default), 0=off)
-gpgpu_ptx_instruction_classification                    0 # if enabled will classify ptx instruction types per kernel (Max 255 kernels now)
-gpgpu_ptx_sim_mode                     0 # Select between Performance (default) or Functional simulation (1)
-gpgpu_clock_domains 837.0:837.0:837.0:1502.0 # Clock Domain Frequencies in MhZ {<Core Clock>:<ICNT Clock>:<L2 Clock>:<DRAM Clock>}
-gpgpu_max_concurrent_kernel                    8 # maximum kernels that can run concurrently on GPU
-gpgpu_cflog_interval                    0 # Interval between each snapshot in control flow logger
-visualizer_enabled                     0 # Turn on visualizer output (1=On, 0=Off)
-visualizer_outputfile                 NULL # Specifies the output log file for visualizer
-visualizer_zlevel                      6 # Compression level of the visualizer output log (0=no comp, 9=highest)
-gpgpu_stack_size_limit                 1024 # GPU thread stack size
-gpgpu_heap_size_limit              8388608 # GPU malloc heap size 
-gpgpu_runtime_sync_depth_limit                    2 # GPU device runtime synchronize depth
-gpgpu_runtime_pending_launch_count_limit                 2048 # GPU device runtime pending launch count
-trace_enabled                          0 # Turn on traces
-trace_components                    none # comma seperated list of traces to enable. Complete list found in trace_streams.tup. Default none
-trace_sampling_core                    0 # The core which is printed using CORE_DPRINTF. Default 0
-trace_sampling_memory_partition                   -1 # The memory partition which is printed using MEMPART_DPRINTF. Default -1 (i.e. all)
-enable_ptx_file_line_stats                    1 # Turn on PTX source line statistic profiling. (1 = On)
-ptx_line_stats_filename gpgpu_inst_stats.txt # Output file for PTX source line statistics.
-gpgpu_kernel_launch_latency                    0 # Kernel launch latency in cycles. Default: 0
-gpgpu_cdp_enabled                      0 # Turn on CDP
-gpgpu_TB_launch_latency                    0 # thread block launch latency in cycles. Default: 0
DRAM Timing Options:
nbk                                    16 # number of banks
CCD                                     2 # column to column delay
RRD                                     8 # minimal delay between activation of rows in different banks
RCD                                    16 # row to column delay
RAS                                    37 # time needed to activate row
RP                                     16 # time needed to precharge (deactivate) row
RC                                     52 # row cycle time
CDLR                                    7 # switching from write to read (changes tWTR)
WR                                     16 # last data-in to row precharge
CL                                     16 # CAS latency
WL                                      6 # Write latency
nbkgrp                                  4 # number of bank groups
CCDL                                    4 # column to column delay between accesses to different bank groups
RTPL                                    3 # read to precharge delay between accesses to different bank groups
Total number of memory sub partition = 24
addr_dec_mask[CHIP]  = 0000000000000000 	high:64 low:0
addr_dec_mask[BK]    = 0000000000007080 	high:15 low:7
addr_dec_mask[ROW]   = 000000000fff8000 	high:28 low:15
addr_dec_mask[COL]   = 0000000000000f7f 	high:12 low:0
addr_dec_mask[BURST] = 000000000000001f 	high:5 low:0
sub_partition_id_mask = 0000000000000080
GPGPU-Sim uArch: clock freqs: 837000000.000000:837000000.000000:837000000.000000:1502000000.000000
GPGPU-Sim uArch: clock periods: 0.00000000119474313023:0.00000000119474313023:0.00000000119474313023:0.00000000066577896138
*** Initializing Memory Statistics ***
GPGPU-Sim uArch: interconnect node map (shaderID+MemID to icntID)
GPGPU-Sim uArch: Memory nodes ID start from index: 14
GPGPU-Sim uArch:    0   1   2   3   4   5
GPGPU-Sim uArch:    6   7   8   9  10  11
GPGPU-Sim uArch:   12  13  14  15  16  17
GPGPU-Sim uArch:   18  19  20  21  22  23
GPGPU-Sim uArch:   24  25  26  27  28  29
GPGPU-Sim uArch:   30  31  32  33  34  35
GPGPU-Sim uArch:   36  37
GPGPU-Sim uArch: interconnect node reverse map (icntID to shaderID+MemID)
GPGPU-Sim uArch: Memory nodes start from ID: 14
GPGPU-Sim uArch:    0   1   2   3   4   5
GPGPU-Sim uArch:    6   7   8   9  10  11
GPGPU-Sim uArch:   12  13  14  15  16  17
GPGPU-Sim uArch:   18  19  20  21  22  23
GPGPU-Sim uArch:   24  25  26  27  28  29
GPGPU-Sim uArch:   30  31  32  33  34  35
GPGPU-Sim uArch:   36  37
4b5884e56544a83a8ca719cf67a524e8  /home/vishnu/COA_Lab/Lab4_28-08-2023/gpu-rodinia/cuda/bfs/a.out
Extracting PTX file and ptxas options    1: a.1.sm_52.ptx -arch=sm_52
GPGPU-Sim uArch: performance model initialization complete.
self exe links to: /home/vishnu/COA_Lab/Lab4_28-08-2023/gpu-rodinia/cuda/bfs/a.out
self exe links to: /home/vishnu/COA_Lab/Lab4_28-08-2023/gpu-rodinia/cuda/bfs/a.out
11.0
GPGPU-Sim PTX: __cudaRegisterFatBinary, fat_cubin_handle = 1, filename=default
self exe links to: /home/vishnu/COA_Lab/Lab4_28-08-2023/gpu-rodinia/cuda/bfs/a.out
Running md5sum using "md5sum /home/vishnu/COA_Lab/Lab4_28-08-2023/gpu-rodinia/cuda/bfs/a.out "
self exe links to: /home/vishnu/COA_Lab/Lab4_28-08-2023/gpu-rodinia/cuda/bfs/a.out
Extracting specific PTX file named a.1.sm_52.ptx 
GPGPU-Sim PTX: __cudaRegisterFunction _Z7Kernel2PbS_S_S_i : hostFun 0x0x55d2c0869f9e, fat_cubin_handle = 1
GPGPU-Sim PTX: Parsing a.1.sm_52.ptx
GPGPU-Sim PTX: instruction assembly for function '_Z6KernelP4NodePiPbS2_S2_S1_i'...   done.
GPGPU-Sim PTX: instruction assembly for function '_Z7Kernel2PbS_S_S_i'...   done.
GPGPU-Sim PTX: finished parsing EMBEDDED .ptx file a.1.sm_52.ptx
GPGPU-Sim PTX: loading globals with explicit initializers... 
GPGPU-Sim PTX: finished loading globals (0 bytes total).
GPGPU-Sim PTX: loading constants with explicit initializers...  done.
GPGPU-Sim PTX: Loading PTXInfo from a.1.sm_52.ptx
GPGPU-Sim PTX: Kernel '_Z7Kernel2PbS_S_S_i' : regs=12, lmem=0, smem=0, cmem=356
GPGPU-Sim PTX: Kernel '_Z6KernelP4NodePiPbS2_S2_S1_i' : regs=18, lmem=0, smem=0, cmem=372
GPGPU-Sim PTX: __cudaRegisterFunction _Z6KernelP4NodePiPbS2_S2_S1_i : hostFun 0x0x55d2c0869dc3, fat_cubin_handle = 1
Reading File
Read File
Copied Everything to GPU memory
Start traversing the tree
GPGPU-Sim PTX: Setting up arguments for 8 bytes starting at 0x7fffe3b94eb8..
GPGPU-Sim PTX: Setting up arguments for 8 bytes starting at 0x7fffe3b94eb0..
GPGPU-Sim PTX: Setting up arguments for 8 bytes starting at 0x7fffe3b94ea8..
GPGPU-Sim PTX: Setting up arguments for 8 bytes starting at 0x7fffe3b94ea0..
GPGPU-Sim PTX: Setting up arguments for 8 bytes starting at 0x7fffe3b94e98..
GPGPU-Sim PTX: Setting up arguments for 8 bytes starting at 0x7fffe3b94e90..
GPGPU-Sim PTX: Setting up arguments for 4 bytes starting at 0x7fffe3b94f40..

GPGPU-Sim PTX: cudaLaunch for 0x0x55d2c0869dc3 (mode=performance simulation) on stream 0
GPGPU-Sim PTX: finding reconvergence points for '_Z6KernelP4NodePiPbS2_S2_S1_i'...
GPGPU-Sim PTX: Finding dominators for '_Z6KernelP4NodePiPbS2_S2_S1_i'...
GPGPU-Sim PTX: Finding immediate dominators for '_Z6KernelP4NodePiPbS2_S2_S1_i'...
GPGPU-Sim PTX: Finding postdominators for '_Z6KernelP4NodePiPbS2_S2_S1_i'...
GPGPU-Sim PTX: Finding immediate postdominators for '_Z6KernelP4NodePiPbS2_S2_S1_i'...
GPGPU-Sim PTX: pre-decoding instructions for '_Z6KernelP4NodePiPbS2_S2_S1_i'...
GPGPU-Sim PTX: reconvergence points for _Z6KernelP4NodePiPbS2_S2_S1_i...
GPGPU-Sim PTX:  1 (potential) branch divergence @  PC=0x060 (a.1.sm_52.ptx:43) @%p1 bra BB0_7;
GPGPU-Sim PTX:    immediate post dominator      @  PC=0x1d8 (a.1.sm_52.ptx:100) ret;
GPGPU-Sim PTX:  2 (potential) branch divergence @  PC=0x090 (a.1.sm_52.ptx:50) @%p2 bra BB0_7;
GPGPU-Sim PTX:    immediate post dominator      @  PC=0x1d8 (a.1.sm_52.ptx:100) ret;
GPGPU-Sim PTX:  3 (potential) branch divergence @  PC=0x0d8 (a.1.sm_52.ptx:60) @%p3 bra BB0_7;
GPGPU-Sim PTX:    immediate post dominator      @  PC=0x1d8 (a.1.sm_52.ptx:100) ret;
GPGPU-Sim PTX:  4 (potential) branch divergence @  PC=0x158 (a.1.sm_52.ptx:79) @%p4 bra BB0_6;
GPGPU-Sim PTX:    immediate post dominator      @  PC=0x1b0 (a.1.sm_52.ptx:93) add.s64 %rd31, %rd31, 4;
GPGPU-Sim PTX:  5 (potential) branch divergence @  PC=0x1d0 (a.1.sm_52.ptx:97) @%p5 bra BB0_4;
GPGPU-Sim PTX:    immediate post dominator      @  PC=0x1d8 (a.1.sm_52.ptx:100) ret;
GPGPU-Sim PTX: ... end of reconvergence points for _Z6KernelP4NodePiPbS2_S2_S1_i
GPGPU-Sim PTX: ... done pre-decoding instructions for '_Z6KernelP4NodePiPbS2_S2_S1_i'.
GPGPU-Sim PTX: pushing kernel '_Z6KernelP4NodePiPbS2_S2_S1_i' to stream 0, gridDim= (128,1,1) blockDim = (512,1,1) 
GPGPU-Sim uArch: Shader 0 bind to kernel 1 '_Z6KernelP4NodePiPbS2_S2_S1_i'
GPGPU-Sim uArch: CTA/core = 4, limited by: threads
GPGPU-Sim uArch: Shader 1 bind to kernel 1 '_Z6KernelP4NodePiPbS2_S2_S1_i'
GPGPU-Sim uArch: Shader 2 bind to kernel 1 '_Z6KernelP4NodePiPbS2_S2_S1_i'
GPGPU-Sim uArch: Shader 3 bind to kernel 1 '_Z6KernelP4NodePiPbS2_S2_S1_i'
GPGPU-Sim uArch: Shader 4 bind to kernel 1 '_Z6KernelP4NodePiPbS2_S2_S1_i'
GPGPU-Sim uArch: Shader 5 bind to kernel 1 '_Z6KernelP4NodePiPbS2_S2_S1_i'
GPGPU-Sim uArch: Shader 6 bind to kernel 1 '_Z6KernelP4NodePiPbS2_S2_S1_i'
GPGPU-Sim uArch: Shader 7 bind to kernel 1 '_Z6KernelP4NodePiPbS2_S2_S1_i'
GPGPU-Sim uArch: Shader 8 bind to kernel 1 '_Z6KernelP4NodePiPbS2_S2_S1_i'
GPGPU-Sim uArch: Shader 9 bind to kernel 1 '_Z6KernelP4NodePiPbS2_S2_S1_i'
GPGPU-Sim uArch: Shader 10 bind to kernel 1 '_Z6KernelP4NodePiPbS2_S2_S1_i'
GPGPU-Sim uArch: Shader 11 bind to kernel 1 '_Z6KernelP4NodePiPbS2_S2_S1_i'
GPGPU-Sim uArch: Shader 12 bind to kernel 1 '_Z6KernelP4NodePiPbS2_S2_S1_i'
GPGPU-Sim uArch: Shader 13 bind to kernel 1 '_Z6KernelP4NodePiPbS2_S2_S1_i'
Destroy streams for kernel 1: size 0
kernel_name = _Z6KernelP4NodePiPbS2_S2_S1_i 
kernel_launch_uid = 1 
gpu_sim_cycle = 6862
gpu_sim_insn = 1245360
gpu_ipc =     181.4865
gpu_tot_sim_cycle = 6862
gpu_tot_sim_insn = 1245360
gpu_tot_ipc =     181.4865
gpu_tot_issued_cta = 128
gpu_occupancy = 77.0701% 
gpu_tot_occupancy = 77.0701% 
max_total_param_size = 0
gpu_stall_dramfull = 0
gpu_stall_icnt2sh    = 0
partiton_level_parallism =       0.3154
partiton_level_parallism_total  =       0.3154
partiton_level_parallism_util =       2.6716
partiton_level_parallism_util_total  =       2.6716
L2_BW  =       9.0048 GB/Sec
L2_BW_total  =       9.0048 GB/Sec
gpu_total_sim_rate=622680

========= Core cache stats =========
L1I_cache:
	L1I_total_cache_accesses = 22624
	L1I_total_cache_misses = 2017
	L1I_total_cache_miss_rate = 0.0892
	L1I_total_cache_pending_hits = 0
	L1I_total_cache_reservation_fails = 63621
L1D_cache:
	L1D_cache_core[0]: Access = 0, Miss = 0, Miss_rate = -nan, Pending_hits = 0, Reservation_fails = 0
	L1D_cache_core[1]: Access = 0, Miss = 0, Miss_rate = -nan, Pending_hits = 0, Reservation_fails = 0
	L1D_cache_core[2]: Access = 0, Miss = 0, Miss_rate = -nan, Pending_hits = 0, Reservation_fails = 0
	L1D_cache_core[3]: Access = 0, Miss = 0, Miss_rate = -nan, Pending_hits = 0, Reservation_fails = 0
	L1D_cache_core[4]: Access = 0, Miss = 0, Miss_rate = -nan, Pending_hits = 0, Reservation_fails = 0
	L1D_cache_core[5]: Access = 0, Miss = 0, Miss_rate = -nan, Pending_hits = 0, Reservation_fails = 0
	L1D_cache_core[6]: Access = 0, Miss = 0, Miss_rate = -nan, Pending_hits = 0, Reservation_fails = 0
	L1D_cache_core[7]: Access = 0, Miss = 0, Miss_rate = -nan, Pending_hits = 0, Reservation_fails = 0
	L1D_cache_core[8]: Access = 0, Miss = 0, Miss_rate = -nan, Pending_hits = 0, Reservation_fails = 0
	L1D_cache_core[9]: Access = 0, Miss = 0, Miss_rate = -nan, Pending_hits = 0, Reservation_fails = 0
	L1D_cache_core[10]: Access = 0, Miss = 0, Miss_rate = -nan, Pending_hits = 0, Reservation_fails = 0
	L1D_cache_core[11]: Access = 0, Miss = 0, Miss_rate = -nan, Pending_hits = 0, Reservation_fails = 0
	L1D_cache_core[12]: Access = 0, Miss = 0, Miss_rate = -nan, Pending_hits = 0, Reservation_fails = 0
	L1D_cache_core[13]: Access = 0, Miss = 0, Miss_rate = -nan, Pending_hits = 0, Reservation_fails = 0
	L1D_total_cache_accesses = 0
	L1D_total_cache_misses = 0
	L1D_total_cache_pending_hits = 0
	L1D_total_cache_reservation_fails = 0
	L1D_cache_data_port_util = 0.000
	L1D_cache_fill_port_util = 0.000
L1C_cache:
	L1C_total_cache_accesses = 14336
	L1C_total_cache_misses = 896
	L1C_total_cache_miss_rate = 0.0625
	L1C_total_cache_pending_hits = 0
	L1C_total_cache_reservation_fails = 3052
L1T_cache:
	L1T_total_cache_accesses = 0
	L1T_total_cache_misses = 0
	L1T_total_cache_pending_hits = 0
	L1T_total_cache_reservation_fails = 0

Total_core_cache_stats:
	Total_core_cache_stats_breakdown[GLOBAL_ACC_R][HIT] = 0
	Total_core_cache_stats_breakdown[GLOBAL_ACC_R][HIT_RESERVED] = 0
	Total_core_cache_stats_breakdown[GLOBAL_ACC_R][MISS] = 0
	Total_core_cache_stats_breakdown[GLOBAL_ACC_R][RESERVATION_FAIL] = 0
	Total_core_cache_stats_breakdown[GLOBAL_ACC_R][SECTOR_MISS] = 0
	Total_core_cache_stats_breakdown[LOCAL_ACC_R][HIT] = 0
	Total_core_cache_stats_breakdown[LOCAL_ACC_R][HIT_RESERVED] = 0
	Total_core_cache_stats_breakdown[LOCAL_ACC_R][MISS] = 0
	Total_core_cache_stats_breakdown[LOCAL_ACC_R][RESERVATION_FAIL] = 0
	Total_core_cache_stats_breakdown[LOCAL_ACC_R][SECTOR_MISS] = 0
	Total_core_cache_stats_breakdown[CONST_ACC_R][HIT] = 13440
	Total_core_cache_stats_breakdown[CONST_ACC_R][HIT_RESERVED] = 0
	Total_core_cache_stats_breakdown[CONST_ACC_R][MISS] = 896
	Total_core_cache_stats_breakdown[CONST_ACC_R][RESERVATION_FAIL] = 3052
	Total_core_cache_stats_breakdown[CONST_ACC_R][SECTOR_MISS] = 0
	Total_core_cache_stats_breakdown[TEXTURE_ACC_R][HIT] = 0
	Total_core_cache_stats_breakdown[TEXTURE_ACC_R][HIT_RESERVED] = 0
	Total_core_cache_stats_breakdown[TEXTURE_ACC_R][MISS] = 0
	Total_core_cache_stats_breakdown[TEXTURE_ACC_R][RESERVATION_FAIL] = 0
	Total_core_cache_stats_breakdown[TEXTURE_ACC_R][SECTOR_MISS] = 0
	Total_core_cache_stats_breakdown[GLOBAL_ACC_W][HIT] = 0
	Total_core_cache_stats_breakdown[GLOBAL_ACC_W][HIT_RESERVED] = 0
	Total_core_cache_stats_breakdown[GLOBAL_ACC_W][MISS] = 0
	Total_core_cache_stats_breakdown[GLOBAL_ACC_W][RESERVATION_FAIL] = 0
	Total_core_cache_stats_breakdown[GLOBAL_ACC_W][SECTOR_MISS] = 0
	Total_core_cache_stats_breakdown[LOCAL_ACC_W][HIT] = 0
	Total_core_cache_stats_breakdown[LOCAL_ACC_W][HIT_RESERVED] = 0
	Total_core_cache_stats_breakdown[LOCAL_ACC_W][MISS] = 0
	Total_core_cache_stats_breakdown[LOCAL_ACC_W][RESERVATION_FAIL] = 0
	Total_core_cache_stats_breakdown[LOCAL_ACC_W][SECTOR_MISS] = 0
	Total_core_cache_stats_breakdown[L1_WRBK_ACC][HIT] = 0
	Total_core_cache_stats_breakdown[L1_WRBK_ACC][HIT_RESERVED] = 0
	Total_core_cache_stats_breakdown[L1_WRBK_ACC][MISS] = 0
	Total_core_cache_stats_breakdown[L1_WRBK_ACC][RESERVATION_FAIL] = 0
	Total_core_cache_stats_breakdown[L1_WRBK_ACC][SECTOR_MISS] = 0
	Total_core_cache_stats_breakdown[L2_WRBK_ACC][HIT] = 0
	Total_core_cache_stats_breakdown[L2_WRBK_ACC][HIT_RESERVED] = 0
	Total_core_cache_stats_breakdown[L2_WRBK_ACC][MISS] = 0
	Total_core_cache_stats_breakdown[L2_WRBK_ACC][RESERVATION_FAIL] = 0
	Total_core_cache_stats_breakdown[L2_WRBK_ACC][SECTOR_MISS] = 0
	Total_core_cache_stats_breakdown[INST_ACC_R][HIT] = 20607
	Total_core_cache_stats_breakdown[INST_ACC_R][HIT_RESERVED] = 0
	Total_core_cache_stats_breakdown[INST_ACC_R][MISS] = 2017
	Total_core_cache_stats_breakdown[INST_ACC_R][RESERVATION_FAIL] = 63621
	Total_core_cache_stats_breakdown[INST_ACC_R][SECTOR_MISS] = 0
	Total_core_cache_stats_breakdown[L1_WR_ALLOC_R][HIT] = 0
	Total_core_cache_stats_breakdown[L1_WR_ALLOC_R][HIT_RESERVED] = 0
	Total_core_cache_stats_breakdown[L1_WR_ALLOC_R][MISS] = 0
	Total_core_cache_stats_breakdown[L1_WR_ALLOC_R][RESERVATION_FAIL] = 0
	Total_core_cache_stats_breakdown[L1_WR_ALLOC_R][SECTOR_MISS] = 0
	Total_core_cache_stats_breakdown[L2_WR_ALLOC_R][HIT] = 0
	Total_core_cache_stats_breakdown[L2_WR_ALLOC_R][HIT_RESERVED] = 0
	Total_core_cache_stats_breakdown[L2_WR_ALLOC_R][MISS] = 0
	Total_core_cache_stats_breakdown[L2_WR_ALLOC_R][RESERVATION_FAIL] = 0
	Total_core_cache_stats_breakdown[L2_WR_ALLOC_R][SECTOR_MISS] = 0
	Total_core_cache_stats_breakdown[CONST_ACC_R][TOTAL_ACCESS] = 14336
	Total_core_cache_stats_breakdown[INST_ACC_R][TOTAL_ACCESS] = 22624

Total_core_cache_fail_stats:
	Total_core_cache_fail_stats_breakdown[CONST_ACC_R][MSHR_MERGE_ENRTY_FAIL] = 3052
	Total_core_cache_fail_stats_breakdown[INST_ACC_R][MSHR_MERGE_ENRTY_FAIL] = 63621
ctas_completed 128, Shader 0 warp_id issue ditsribution:
warp_id:
0, 1, 2, 3, 4, 5, 6, 7, 8, 9, 10, 11, 12, 13, 14, 15, 16, 17, 18, 19, 20, 21, 22, 23, 24, 25, 26, 27, 28, 29, 30, 31, 32, 33, 34, 35, 36, 37, 38, 39, 40, 41, 42, 43, 44, 45, 46, 47, 48, 49, 50, 51, 52, 53, 54, 55, 56, 57, 58, 59, 60, 61, 62, 63, 
distro:
227, 23, 23, 23, 23, 23, 23, 23, 23, 23, 23, 23, 22, 22, 23, 23, 69, 69, 69, 69, 69, 69, 69, 69, 69, 69, 68, 69, 69, 69, 69, 69, 69, 69, 69, 69, 69, 69, 69, 69, 69, 69, 69, 69, 69, 69, 69, 69, 46, 46, 46, 46, 46, 46, 46, 46, 46, 46, 46, 46, 46, 46, 46, 46, 
gpgpu_n_tot_thrd_icount = 1316704
gpgpu_n_tot_w_icount = 41147
gpgpu_n_stall_shd_mem = 3052
gpgpu_n_mem_read_local = 0
gpgpu_n_mem_write_local = 0
gpgpu_n_mem_read_global = 2090
gpgpu_n_mem_write_global = 17
gpgpu_n_mem_texture = 0
gpgpu_n_mem_const = 14
gpgpu_n_load_insn  = 65578
gpgpu_n_store_insn = 17
gpgpu_n_shmem_insn = 0
gpgpu_n_sstarr_insn = 0
gpgpu_n_tex_insn = 0
gpgpu_n_const_mem_insn = 0
gpgpu_n_param_mem_insn = 458752
gpgpu_n_shmem_bkconflict = 0
gpgpu_n_cache_bkconflict = 0
gpgpu_n_intrawarp_mshr_merge = 0
gpgpu_n_cmem_portconflict = 3052
gpgpu_stall_shd_mem[c_mem][resource_stall] = 3052
gpgpu_stall_shd_mem[s_mem][bk_conf] = 0
gpgpu_stall_shd_mem[gl_mem][resource_stall] = 0
gpgpu_stall_shd_mem[gl_mem][coal_stall] = 0
gpgpu_stall_shd_mem[gl_mem][data_port_stall] = 0
gpu_reg_bank_conflict_stalls = 0
Warp Occupancy Distribution:
Stall:45968	W0_Idle:41793	W0_Scoreboard:21862	W1:187	W2:0	W3:0	W4:0	W5:0	W6:0	W7:0	W8:0	W9:0	W10:0	W11:0	W12:0	W13:0	W14:0	W15:0	W16:0	W17:0	W18:0	W19:0	W20:0	W21:0	W22:0	W23:0	W24:0	W25:0	W26:0	W27:0	W28:0	W29:0	W30:0	W31:0	W32:40960
single_issue_nums: WS0:7329	WS1:7190	WS2:7182	WS3:7178	
dual_issue_nums: WS0:1549	WS1:1525	WS2:1529	WS3:1531	
traffic_breakdown_coretomem[CONST_ACC_R] = 112 {8:14,}
traffic_breakdown_coretomem[GLOBAL_ACC_R] = 16720 {8:2090,}
traffic_breakdown_coretomem[GLOBAL_ACC_W] = 680 {40:17,}
traffic_breakdown_coretomem[INST_ACC_R] = 344 {8:43,}
traffic_breakdown_memtocore[CONST_ACC_R] = 1120 {40:28,}
traffic_breakdown_memtocore[GLOBAL_ACC_R] = 83600 {40:2090,}
traffic_breakdown_memtocore[GLOBAL_ACC_W] = 136 {8:17,}
traffic_breakdown_memtocore[INST_ACC_R] = 6880 {40:172,}
maxmflatency = 274 
max_icnt2mem_latency = 20 
maxmrqlatency = 18 
max_icnt2sh_latency = 16 
averagemflatency = 139 
avg_icnt2mem_latency = 8 
avg_mrq_latency = 6 
avg_icnt2sh_latency = 7 
mrq_lat_table:7 	0 	0 	12 	1 	0 	0 	0 	0 	0 	0 	0 	0 	0 	0 	0 	0 	0 	0 	0 	0 	0 	0 	0 	0 	0 	0 	0 	0 	0 	0 	0 	
dq_lat_table:0 	0 	0 	0 	0 	0 	0 	0 	0 	0 	0 	0 	0 	0 	0 	0 	0 	0 	0 	0 	0 	0 	0 	0 	0 	0 	0 	0 	0 	0 	0 	0 	
mf_lat_table:0 	0 	0 	0 	0 	0 	0 	2106 	29 	0 	0 	0 	0 	0 	0 	0 	0 	0 	0 	0 	0 	0 	0 	0 	0 	0 	0 	0 	0 	0 	0 	0 	
icnt2mem_lat_table:0 	0 	1357 	762 	45 	0 	0 	0 	0 	0 	0 	0 	0 	0 	0 	0 	0 	0 	0 	0 	0 	0 	0 	0 	
icnt2sh_lat_table:0 	0 	1997 	134 	4 	0 	0 	0 	0 	0 	0 	0 	0 	0 	0 	0 	0 	0 	0 	0 	0 	0 	0 	0 	
mf_lat_pw_table:0 	0 	0 	0 	0 	0 	0 	11 	1 	0 	0 	0 	0 	0 	0 	0 	0 	0 	0 	0 	0 	0 	0 	0 	0 	0 	0 	0 	0 	0 	0 	0 	
maximum concurrent accesses to same row:
dram[0]:         4         0         0         0         0         0         0         0         0         0         0         0         0         0         0         0 
dram[1]:         0         0         0         0         0         0         0         0         0         0         0         0         0         0         0         0 
dram[2]:         0         0         0         0         0         0         0         0         0         0         0         0         0         0         0         0 
dram[3]:         0         0         0         0         0         0         0         0         0         0         0         0         0         0         0         0 
dram[4]:         0         0         0         0         0         0         0         0         0         0         0         0         0         0         0         0 
dram[5]:         0         0         0         0         0         0         0         0         0         0         0         0         0         0         0         0 
dram[6]:         0         0         0         0         0         0         0         0         0         0         0         0         0         0         0         0 
dram[7]:         0         0         0         0         0         0         0         0         0         0         0         0         0         0         0         0 
dram[8]:         0         0         0         0         0         0         0         0         0         0         0         0         0         0         0         0 
dram[9]:         0         0         0         0         0         0         0         0         0         0         0         0         0         0         0         0 
dram[10]:         0         0         0         0         0         0         0         0         0         0         0         0         0         0         0         0 
dram[11]:         0         0         0         0         0         0         0         0         0         0         0         0         0         0         0         0 
maximum service time to same row:
dram[0]:       304       855         0         0         0         0         0         0         0         0         0         0         0         0         0         0 
dram[1]:      1609      1311         0         0         0         0         0         0         0         0         0         0         0         0         0         0 
dram[2]:         0         0         0         0         0         0         0         0         0         0         0         0         0         0         0         0 
dram[3]:         0         0         0         0         0         0         0         0         0         0         0         0         0         0         0         0 
dram[4]:         0         0         0         0         0         0         0         0         0         0         0         0         0         0         0         0 
dram[5]:         0         0         0         0         0         0         0         0         0         0         0         0         0         0         0         0 
dram[6]:         0         0         0         0         0         0         0         0         0         0         0         0         0         0         0         0 
dram[7]:         0         0         0         0         0         0         0         0         0         0         0         0         0         0         0         0 
dram[8]:         0         0         0         0      1899         0         0         0         0         0         0         0         0         0         0         0 
dram[9]:         0         0         0         0         0         0         0         0         0         0         0         0         0         0         0         0 
dram[10]:         0         0         0         0         0         0         0         0         0         0         0         0         0         0         0         0 
dram[11]:         0         0         0         0         0         0         0         0         0         0         0         0         0         0         0         0 
average row accesses per activate:
dram[0]:  3.500000  4.000000      -nan      -nan      -nan      -nan      -nan      -nan      -nan      -nan      -nan      -nan      -nan      -nan      -nan      -nan 
dram[1]:  4.000000  4.000000      -nan      -nan      -nan      -nan      -nan      -nan      -nan      -nan      -nan      -nan      -nan      -nan      -nan      -nan 
dram[2]:      -nan      -nan      -nan      -nan      -nan      -nan      -nan      -nan      -nan      -nan      -nan      -nan      -nan      -nan      -nan      -nan 
dram[3]:      -nan      -nan      -nan      -nan      -nan      -nan      -nan      -nan      -nan      -nan      -nan      -nan      -nan      -nan      -nan      -nan 
dram[4]:      -nan      -nan      -nan      -nan      -nan      -nan      -nan      -nan      -nan      -nan      -nan      -nan      -nan      -nan      -nan      -nan 
dram[5]:      -nan      -nan      -nan      -nan      -nan      -nan      -nan      -nan      -nan      -nan      -nan      -nan      -nan      -nan      -nan      -nan 
dram[6]:      -nan      -nan      -nan      -nan      -nan      -nan      -nan      -nan      -nan      -nan      -nan      -nan      -nan      -nan      -nan      -nan 
dram[7]:      -nan      -nan      -nan      -nan      -nan      -nan      -nan      -nan      -nan      -nan      -nan      -nan      -nan      -nan      -nan      -nan 
dram[8]:      -nan      -nan      -nan      -nan  1.000000      -nan      -nan      -nan      -nan      -nan      -nan      -nan      -nan      -nan      -nan      -nan 
dram[9]:      -nan      -nan      -nan      -nan      -nan      -nan      -nan      -nan      -nan      -nan      -nan      -nan      -nan      -nan      -nan      -nan 
dram[10]:      -nan      -nan      -nan      -nan      -nan      -nan      -nan      -nan      -nan      -nan      -nan      -nan      -nan      -nan      -nan      -nan 
dram[11]:      -nan      -nan      -nan      -nan      -nan      -nan      -nan      -nan      -nan      -nan      -nan      -nan      -nan      -nan      -nan      -nan 
average row locality = 20/6 = 3.333333
number of total memory accesses made:
dram[0]:         0         0         0         0         0         0         0         0         0         0         0         0         0         0         0         0 
dram[1]:         0         0         0         0         0         0         0         0         0         0         0         0         0         0         0         0 
dram[2]:         0         0         0         0         0         0         0         0         0         0         0         0         0         0         0         0 
dram[3]:         0         0         0         0         0         0         0         0         0         0         0         0         0         0         0         0 
dram[4]:         0         0         0         0         0         0         0         0         0         0         0         0         0         0         0         0 
dram[5]:         0         0         0         0         0         0         0         0         0         0         0         0         0         0         0         0 
dram[6]:         0         0         0         0         0         0         0         0         0         0         0         0         0         0         0         0 
dram[7]:         0         0         0         0         0         0         0         0         0         0         0         0         0         0         0         0 
dram[8]:         0         0         0         0         0         0         0         0         0         0         0         0         0         0         0         0 
dram[9]:         0         0         0         0         0         0         0         0         0         0         0         0         0         0         0         0 
dram[10]:         0         0         0         0         0         0         0         0         0         0         0         0         0         0         0         0 
dram[11]:         0         0         0         0         0         0         0         0         0         0         0         0         0         0         0         0 
total accesses: 0
min_bank_accesses = 0!
min_chip_accesses = 0!
number of total read accesses:
dram[0]:         7         4         0         0         0         0         0         0         0         0         0         0         0         0         0         0 
dram[1]:         4         4         0         0         0         0         0         0         0         0         0         0         0         0         0         0 
dram[2]:         0         0         0         0         0         0         0         0         0         0         0         0         0         0         0         0 
dram[3]:         0         0         0         0         0         0         0         0         0         0         0         0         0         0         0         0 
dram[4]:         0         0         0         0         0         0         0         0         0         0         0         0         0         0         0         0 
dram[5]:         0         0         0         0         0         0         0         0         0         0         0         0         0         0         0         0 
dram[6]:         0         0         0         0         0         0         0         0         0         0         0         0         0         0         0         0 
dram[7]:         0         0         0         0         0         0         0         0         0         0         0         0         0         0         0         0 
dram[8]:         0         0         0         0         1         0         0         0         0         0         0         0         0         0         0         0 
dram[9]:         0         0         0         0         0         0         0         0         0         0         0         0         0         0         0         0 
dram[10]:         0         0         0         0         0         0         0         0         0         0         0         0         0         0         0         0 
dram[11]:         0         0         0         0         0         0         0         0         0         0         0         0         0         0         0         0 
total dram reads = 20
min_bank_accesses = 0!
min_chip_accesses = 0!
number of total write accesses:
dram[0]:         0         0         0         0         0         0         0         0         0         0         0         0         0         0         0         0 
dram[1]:         0         0         0         0         0         0         0         0         0         0         0         0         0         0         0         0 
dram[2]:         0         0         0         0         0         0         0         0         0         0         0         0         0         0         0         0 
dram[3]:         0         0         0         0         0         0         0         0         0         0         0         0         0         0         0         0 
dram[4]:         0         0         0         0         0         0         0         0         0         0         0         0         0         0         0         0 
dram[5]:         0         0         0         0         0         0         0         0         0         0         0         0         0         0         0         0 
dram[6]:         0         0         0         0         0         0         0         0         0         0         0         0         0         0         0         0 
dram[7]:         0         0         0         0         0         0         0         0         0         0         0         0         0         0         0         0 
dram[8]:         0         0         0         0         0         0         0         0         0         0         0         0         0         0         0         0 
dram[9]:         0         0         0         0         0         0         0         0         0         0         0         0         0         0         0         0 
dram[10]:         0         0         0         0         0         0         0         0         0         0         0         0         0         0         0         0 
dram[11]:         0         0         0         0         0         0         0         0         0         0         0         0         0         0         0         0 
total dram writes = 0
min_bank_accesses = 0!
min_chip_accesses = 0!
average mf latency per bank:
dram[0]:       1433         0    none      none      none      none      none      none      none      none      none      none      none      none      none      none  
dram[1]:          0         0    none      none      none      none      none      none      none      none      none      none      none      none      none      none  
dram[2]:     none      none      none      none      none      none      none      none      none      none      none      none      none      none      none      none  
dram[3]:     none      none      none      none      none      none      none      none      none      none      none      none      none      none      none      none  
dram[4]:     none      none      none      none      none      none      none      none      none      none      none      none      none      none      none      none  
dram[5]:     none      none      none      none      none      none      none      none      none      none      none      none      none      none      none      none  
dram[6]:     none      none      none      none      none      none      none      none      none      none      none      none      none      none      none      none  
dram[7]:     none      none      none      none      none      none      none      none      none      none      none      none      none      none      none      none  
dram[8]:     none      none      none      none        4662    none      none      none      none      none      none      none      none      none      none      none  
dram[9]:     none      none      none      none      none      none      none      none      none      none      none      none      none      none      none      none  
dram[10]:     none      none      none      none      none      none      none      none      none      none      none      none      none      none      none      none  
dram[11]:     none      none      none      none      none      none      none      none      none      none      none      none      none      none      none      none  
maximum mf latency per bank:
dram[0]:        274         0         0         0       140       141       146       145         0         0         0         0         0       136         0         0
dram[1]:          0         0         0         0       142       143       145       145         0         0       136         0         0         0         0         0
dram[2]:          0         0         0         0       141       142       146       147         0         0         0         0         0         0         0         0
dram[3]:          0         0         0         0       143       144       146       144         0         0       136         0       136         0         0         0
dram[4]:          0         0         0         0       140       141       144       146         0         0         0         0         0         0         0       136
dram[5]:        136         0         0       136       143       143       147       147       136       136         0         0         0         0         0         0
dram[6]:          0         0         0       136       144       145       145       147         0         0         0         0         0         0       136         0
dram[7]:          0         0         0         0       144       145       146       145         0         0         0         0         0         0         0         0
dram[8]:        136         0         0         0       258       144       148       147         0       136         0       136       136         0         0         0
dram[9]:          0         0         0         0       145       145       147       140       136         0       136       136         0         0         0         0
dram[10]:          0         0         0         0       141       141       146       147         0         0         0         0         0         0         0         0
dram[11]:          0         0         0         0       142       143       146       145       136         0       136         0         0         0         0         0
Memory Partition 0: 
Cache L2_bank_000:
MSHR contents

Cache L2_bank_001:
MSHR contents

In Dram Latency Queue (total = 0): 
DRAM[0]: 16 bks, busW=4 BL=8 CL=16, tRRD=8 tCCD=2, tRCD=16 tRAS=37 tRP=16 tRC=52
n_cmd=12313 n_nop=12298 n_act=3 n_pre=1 n_ref_event=94363668859552 n_req=11 n_rd=11 n_rd_L2_A=0 n_write=0 n_wr_bk=0 bw_util=0.001787
n_activity=186 dram_eff=0.1183
bk0: 7a 12253i bk1: 4a 12287i bk2: 0a 12311i bk3: 0a 12312i bk4: 0a 12312i bk5: 0a 12313i bk6: 0a 12313i bk7: 0a 12313i bk8: 0a 12313i bk9: 0a 12313i bk10: 0a 12313i bk11: 0a 12313i bk12: 0a 12313i bk13: 0a 12314i bk14: 0a 12314i bk15: 0a 12314i 

------------------------------------------------------------------------

Row_Buffer_Locality = 0.727273
Row_Buffer_Locality_read = 0.727273
Row_Buffer_Locality_write = -nan
Bank_Level_Parallism = 1.000000
Bank_Level_Parallism_Col = 0.673706
Bank_Level_Parallism_Ready = 1.000000
write_to_read_ratio_blp_rw_average = 0.000000
GrpLevelPara = 0.000000 

BW Util details:
bwutil = 0.001787 
total_CMD = 12313 
util_bw = 22 
Wasted_Col = 62 
Wasted_Row = 16 
Idle = 12213 

BW Util Bottlenecks: 
RCDc_limit = 48 
RCDWRc_limit = 0 
WTRc_limit = 0 
RTWc_limit = 0 
CCDLc_limit = 14 
rwq = 0 
CCDLc_limit_alone = 14 
WTRc_limit_alone = 0 
RTWc_limit_alone = 0 

Commands details: 
total_CMD = 12313 
n_nop = 12298 
Read = 11 
Write = 0 
L2_Alloc = 0 
L2_WB = 0 
n_act = 3 
n_pre = 1 
n_ref = 94363668859552 
n_req = 11 
total_req = 11 

Dual Bus Interface Util: 
issued_total_row = 4 
issued_total_col = 11 
Row_Bus_Util =  0.000325 
CoL_Bus_Util = 0.000893 
Either_Row_CoL_Bus_Util = 0.001218 
Issued_on_Two_Bus_Simul_Util = 0.000000 
issued_two_Eff = 0.000000 
queue_avg = 0.010883 


dram_util_bins: 0 0 0 0 0 0 0 0 0 0
dram_eff_bins: 0 0 0 0 0 0 0 0 0 0
mrqq: max=3 avg=0.0108828
Memory Partition 1: 
Cache L2_bank_002:
MSHR contents

Cache L2_bank_003:
MSHR contents

In Dram Latency Queue (total = 0): 
DRAM[1]: 16 bks, busW=4 BL=8 CL=16, tRRD=8 tCCD=2, tRCD=16 tRAS=37 tRP=16 tRC=52
n_cmd=12313 n_nop=12303 n_act=2 n_pre=0 n_ref_event=94363669719184 n_req=8 n_rd=8 n_rd_L2_A=0 n_write=0 n_wr_bk=0 bw_util=0.001299
n_activity=104 dram_eff=0.1538
bk0: 4a 12288i bk1: 4a 12287i bk2: 0a 12311i bk3: 0a 12312i bk4: 0a 12312i bk5: 0a 12312i bk6: 0a 12313i bk7: 0a 12313i bk8: 0a 12313i bk9: 0a 12313i bk10: 0a 12313i bk11: 0a 12313i bk12: 0a 12314i bk13: 0a 12314i bk14: 0a 12314i bk15: 0a 12314i 

------------------------------------------------------------------------

Row_Buffer_Locality = 0.750000
Row_Buffer_Locality_read = 0.750000
Row_Buffer_Locality_write = -nan
Bank_Level_Parallism = 1.000000
Bank_Level_Parallism_Col = 1.000000
Bank_Level_Parallism_Ready = 1.000000
write_to_read_ratio_blp_rw_average = 0.000000
GrpLevelPara = 1.000000 

BW Util details:
bwutil = 0.001299 
total_CMD = 12313 
util_bw = 16 
Wasted_Col = 44 
Wasted_Row = 0 
Idle = 12253 

BW Util Bottlenecks: 
RCDc_limit = 32 
RCDWRc_limit = 0 
WTRc_limit = 0 
RTWc_limit = 0 
CCDLc_limit = 12 
rwq = 0 
CCDLc_limit_alone = 12 
WTRc_limit_alone = 0 
RTWc_limit_alone = 0 

Commands details: 
total_CMD = 12313 
n_nop = 12303 
Read = 8 
Write = 0 
L2_Alloc = 0 
L2_WB = 0 
n_act = 2 
n_pre = 0 
n_ref = 94363669719184 
n_req = 8 
total_req = 8 

Dual Bus Interface Util: 
issued_total_row = 2 
issued_total_col = 8 
Row_Bus_Util =  0.000162 
CoL_Bus_Util = 0.000650 
Either_Row_CoL_Bus_Util = 0.000812 
Issued_on_Two_Bus_Simul_Util = 0.000000 
issued_two_Eff = 0.000000 
queue_avg = 0.008365 


dram_util_bins: 0 0 0 0 0 0 0 0 0 0
dram_eff_bins: 0 0 0 0 0 0 0 0 0 0
mrqq: max=3 avg=0.00836514
Memory Partition 2: 
Cache L2_bank_004:
MSHR contents

Cache L2_bank_005:
MSHR contents

In Dram Latency Queue (total = 0): 
DRAM[2]: 16 bks, busW=4 BL=8 CL=16, tRRD=8 tCCD=2, tRCD=16 tRAS=37 tRP=16 tRC=52
n_cmd=12313 n_nop=12313 n_act=0 n_pre=0 n_ref_event=0 n_req=0 n_rd=0 n_rd_L2_A=0 n_write=0 n_wr_bk=0 bw_util=0
n_activity=0 dram_eff=-nan
bk0: 0a 12313i bk1: 0a 12313i bk2: 0a 12313i bk3: 0a 12313i bk4: 0a 12313i bk5: 0a 12313i bk6: 0a 12313i bk7: 0a 12313i bk8: 0a 12313i bk9: 0a 12313i bk10: 0a 12313i bk11: 0a 12313i bk12: 0a 12313i bk13: 0a 12313i bk14: 0a 12313i bk15: 0a 12313i 

------------------------------------------------------------------------

Row_Buffer_Locality = -nan
Row_Buffer_Locality_read = -nan
Row_Buffer_Locality_write = -nan
Bank_Level_Parallism = -nan
Bank_Level_Parallism_Col = -nan
Bank_Level_Parallism_Ready = -nan
write_to_read_ratio_blp_rw_average = -nan
GrpLevelPara = -nan 

BW Util details:
bwutil = 0.000000 
total_CMD = 12313 
util_bw = 0 
Wasted_Col = 0 
Wasted_Row = 0 
Idle = 12313 

BW Util Bottlenecks: 
RCDc_limit = 0 
RCDWRc_limit = 0 
WTRc_limit = 0 
RTWc_limit = 0 
CCDLc_limit = 0 
rwq = 0 
CCDLc_limit_alone = 0 
WTRc_limit_alone = 0 
RTWc_limit_alone = 0 

Commands details: 
total_CMD = 12313 
n_nop = 12313 
Read = 0 
Write = 0 
L2_Alloc = 0 
L2_WB = 0 
n_act = 0 
n_pre = 0 
n_ref = 0 
n_req = 0 
total_req = 0 

Dual Bus Interface Util: 
issued_total_row = 0 
issued_total_col = 0 
Row_Bus_Util =  0.000000 
CoL_Bus_Util = 0.000000 
Either_Row_CoL_Bus_Util = 0.000000 
Issued_on_Two_Bus_Simul_Util = 0.000000 
issued_two_Eff = -nan 
queue_avg = 0.000000 


dram_util_bins: 0 0 0 0 0 0 0 0 0 0
dram_eff_bins: 0 0 0 0 0 0 0 0 0 0
mrqq: max=0 avg=0
Memory Partition 3: 
Cache L2_bank_006:
MSHR contents

Cache L2_bank_007:
MSHR contents

In Dram Latency Queue (total = 0): 
DRAM[3]: 16 bks, busW=4 BL=8 CL=16, tRRD=8 tCCD=2, tRCD=16 tRAS=37 tRP=16 tRC=52
n_cmd=12313 n_nop=12313 n_act=0 n_pre=0 n_ref_event=0 n_req=0 n_rd=0 n_rd_L2_A=0 n_write=0 n_wr_bk=0 bw_util=0
n_activity=0 dram_eff=-nan
bk0: 0a 12313i bk1: 0a 12313i bk2: 0a 12313i bk3: 0a 12313i bk4: 0a 12313i bk5: 0a 12313i bk6: 0a 12313i bk7: 0a 12313i bk8: 0a 12313i bk9: 0a 12313i bk10: 0a 12313i bk11: 0a 12313i bk12: 0a 12313i bk13: 0a 12313i bk14: 0a 12313i bk15: 0a 12313i 

------------------------------------------------------------------------

Row_Buffer_Locality = -nan
Row_Buffer_Locality_read = -nan
Row_Buffer_Locality_write = -nan
Bank_Level_Parallism = -nan
Bank_Level_Parallism_Col = -nan
Bank_Level_Parallism_Ready = -nan
write_to_read_ratio_blp_rw_average = -nan
GrpLevelPara = -nan 

BW Util details:
bwutil = 0.000000 
total_CMD = 12313 
util_bw = 0 
Wasted_Col = 0 
Wasted_Row = 0 
Idle = 12313 

BW Util Bottlenecks: 
RCDc_limit = 0 
RCDWRc_limit = 0 
WTRc_limit = 0 
RTWc_limit = 0 
CCDLc_limit = 0 
rwq = 0 
CCDLc_limit_alone = 0 
WTRc_limit_alone = 0 
RTWc_limit_alone = 0 

Commands details: 
total_CMD = 12313 
n_nop = 12313 
Read = 0 
Write = 0 
L2_Alloc = 0 
L2_WB = 0 
n_act = 0 
n_pre = 0 
n_ref = 0 
n_req = 0 
total_req = 0 

Dual Bus Interface Util: 
issued_total_row = 0 
issued_total_col = 0 
Row_Bus_Util =  0.000000 
CoL_Bus_Util = 0.000000 
Either_Row_CoL_Bus_Util = 0.000000 
Issued_on_Two_Bus_Simul_Util = 0.000000 
issued_two_Eff = -nan 
queue_avg = 0.000000 


dram_util_bins: 0 0 0 0 0 0 0 0 0 0
dram_eff_bins: 0 0 0 0 0 0 0 0 0 0
mrqq: max=0 avg=0
Memory Partition 4: 
Cache L2_bank_008:
MSHR contents

Cache L2_bank_009:
MSHR contents

In Dram Latency Queue (total = 0): 
DRAM[4]: 16 bks, busW=4 BL=8 CL=16, tRRD=8 tCCD=2, tRCD=16 tRAS=37 tRP=16 tRC=52
n_cmd=12313 n_nop=12313 n_act=0 n_pre=0 n_ref_event=0 n_req=0 n_rd=0 n_rd_L2_A=0 n_write=0 n_wr_bk=0 bw_util=0
n_activity=0 dram_eff=-nan
bk0: 0a 12313i bk1: 0a 12313i bk2: 0a 12313i bk3: 0a 12313i bk4: 0a 12313i bk5: 0a 12313i bk6: 0a 12313i bk7: 0a 12313i bk8: 0a 12313i bk9: 0a 12313i bk10: 0a 12313i bk11: 0a 12313i bk12: 0a 12313i bk13: 0a 12313i bk14: 0a 12313i bk15: 0a 12313i 

------------------------------------------------------------------------

Row_Buffer_Locality = -nan
Row_Buffer_Locality_read = -nan
Row_Buffer_Locality_write = -nan
Bank_Level_Parallism = -nan
Bank_Level_Parallism_Col = -nan
Bank_Level_Parallism_Ready = -nan
write_to_read_ratio_blp_rw_average = -nan
GrpLevelPara = -nan 

BW Util details:
bwutil = 0.000000 
total_CMD = 12313 
util_bw = 0 
Wasted_Col = 0 
Wasted_Row = 0 
Idle = 12313 

BW Util Bottlenecks: 
RCDc_limit = 0 
RCDWRc_limit = 0 
WTRc_limit = 0 
RTWc_limit = 0 
CCDLc_limit = 0 
rwq = 0 
CCDLc_limit_alone = 0 
WTRc_limit_alone = 0 
RTWc_limit_alone = 0 

Commands details: 
total_CMD = 12313 
n_nop = 12313 
Read = 0 
Write = 0 
L2_Alloc = 0 
L2_WB = 0 
n_act = 0 
n_pre = 0 
n_ref = 0 
n_req = 0 
total_req = 0 

Dual Bus Interface Util: 
issued_total_row = 0 
issued_total_col = 0 
Row_Bus_Util =  0.000000 
CoL_Bus_Util = 0.000000 
Either_Row_CoL_Bus_Util = 0.000000 
Issued_on_Two_Bus_Simul_Util = 0.000000 
issued_two_Eff = -nan 
queue_avg = 0.000000 


dram_util_bins: 0 0 0 0 0 0 0 0 0 0
dram_eff_bins: 0 0 0 0 0 0 0 0 0 0
mrqq: max=0 avg=0
Memory Partition 5: 
Cache L2_bank_010:
MSHR contents

Cache L2_bank_011:
MSHR contents

In Dram Latency Queue (total = 0): 
DRAM[5]: 16 bks, busW=4 BL=8 CL=16, tRRD=8 tCCD=2, tRCD=16 tRAS=37 tRP=16 tRC=52
n_cmd=12313 n_nop=12313 n_act=0 n_pre=0 n_ref_event=0 n_req=0 n_rd=0 n_rd_L2_A=0 n_write=0 n_wr_bk=0 bw_util=0
n_activity=0 dram_eff=-nan
bk0: 0a 12313i bk1: 0a 12313i bk2: 0a 12313i bk3: 0a 12313i bk4: 0a 12313i bk5: 0a 12313i bk6: 0a 12313i bk7: 0a 12313i bk8: 0a 12313i bk9: 0a 12313i bk10: 0a 12313i bk11: 0a 12313i bk12: 0a 12313i bk13: 0a 12313i bk14: 0a 12313i bk15: 0a 12313i 

------------------------------------------------------------------------

Row_Buffer_Locality = -nan
Row_Buffer_Locality_read = -nan
Row_Buffer_Locality_write = -nan
Bank_Level_Parallism = -nan
Bank_Level_Parallism_Col = 1.004582
Bank_Level_Parallism_Ready = -nan
write_to_read_ratio_blp_rw_average = 0.000000
GrpLevelPara = 0.000000 

BW Util details:
bwutil = 0.000000 
total_CMD = 12313 
util_bw = 0 
Wasted_Col = 0 
Wasted_Row = 0 
Idle = 12313 

BW Util Bottlenecks: 
RCDc_limit = 0 
RCDWRc_limit = 0 
WTRc_limit = 0 
RTWc_limit = 0 
CCDLc_limit = 0 
rwq = 0 
CCDLc_limit_alone = 0 
WTRc_limit_alone = 0 
RTWc_limit_alone = 0 

Commands details: 
total_CMD = 12313 
n_nop = 12313 
Read = 0 
Write = 0 
L2_Alloc = 0 
L2_WB = 0 
n_act = 0 
n_pre = 0 
n_ref = 0 
n_req = 0 
total_req = 0 

Dual Bus Interface Util: 
issued_total_row = 0 
issued_total_col = 0 
Row_Bus_Util =  0.000000 
CoL_Bus_Util = 0.000000 
Either_Row_CoL_Bus_Util = 0.000000 
Issued_on_Two_Bus_Simul_Util = 0.000000 
issued_two_Eff = -nan 
queue_avg = 0.000000 


dram_util_bins: 0 0 0 0 0 0 0 0 0 0
dram_eff_bins: 0 0 0 0 0 0 0 0 0 0
mrqq: max=0 avg=0
Memory Partition 6: 
Cache L2_bank_012:
MSHR contents

Cache L2_bank_013:
MSHR contents

In Dram Latency Queue (total = 0): 
DRAM[6]: 16 bks, busW=4 BL=8 CL=16, tRRD=8 tCCD=2, tRCD=16 tRAS=37 tRP=16 tRC=52
n_cmd=12313 n_nop=12313 n_act=0 n_pre=0 n_ref_event=4568229571824690154 n_req=0 n_rd=0 n_rd_L2_A=0 n_write=0 n_wr_bk=0 bw_util=0
n_activity=0 dram_eff=-nan
bk0: 0a 12313i bk1: 0a 12313i bk2: 0a 12313i bk3: 0a 12313i bk4: 0a 12313i bk5: 0a 12313i bk6: 0a 12313i bk7: 0a 12313i bk8: 0a 12313i bk9: 0a 12313i bk10: 0a 12313i bk11: 0a 12313i bk12: 0a 12313i bk13: 0a 12313i bk14: 0a 12313i bk15: 0a 12313i 

------------------------------------------------------------------------

Row_Buffer_Locality = -nan
Row_Buffer_Locality_read = -nan
Row_Buffer_Locality_write = -nan
Bank_Level_Parallism = -nan
Bank_Level_Parallism_Col = -nan
Bank_Level_Parallism_Ready = -nan
write_to_read_ratio_blp_rw_average = -nan
GrpLevelPara = -nan 

BW Util details:
bwutil = 0.000000 
total_CMD = 12313 
util_bw = 0 
Wasted_Col = 0 
Wasted_Row = 0 
Idle = 12313 

BW Util Bottlenecks: 
RCDc_limit = 0 
RCDWRc_limit = 0 
WTRc_limit = 0 
RTWc_limit = 0 
CCDLc_limit = 0 
rwq = 0 
CCDLc_limit_alone = 0 
WTRc_limit_alone = 0 
RTWc_limit_alone = 0 

Commands details: 
total_CMD = 12313 
n_nop = 12313 
Read = 0 
Write = 0 
L2_Alloc = 0 
L2_WB = 0 
n_act = 0 
n_pre = 0 
n_ref = 4568229571824690154 
n_req = 0 
total_req = 0 

Dual Bus Interface Util: 
issued_total_row = 0 
issued_total_col = 0 
Row_Bus_Util =  0.000000 
CoL_Bus_Util = 0.000000 
Either_Row_CoL_Bus_Util = 0.000000 
Issued_on_Two_Bus_Simul_Util = 0.000000 
issued_two_Eff = -nan 
queue_avg = 0.000000 


dram_util_bins: 0 0 0 0 0 0 0 0 0 0
dram_eff_bins: 0 0 0 0 0 0 0 0 0 0
mrqq: max=0 avg=0
Memory Partition 7: 
Cache L2_bank_014:
MSHR contents

Cache L2_bank_015:
MSHR contents

In Dram Latency Queue (total = 0): 
DRAM[7]: 16 bks, busW=4 BL=8 CL=16, tRRD=8 tCCD=2, tRCD=16 tRAS=37 tRP=16 tRC=52
n_cmd=12313 n_nop=12313 n_act=0 n_pre=0 n_ref_event=0 n_req=0 n_rd=0 n_rd_L2_A=0 n_write=0 n_wr_bk=0 bw_util=0
n_activity=0 dram_eff=-nan
bk0: 0a 12313i bk1: 0a 12313i bk2: 0a 12313i bk3: 0a 12313i bk4: 0a 12313i bk5: 0a 12313i bk6: 0a 12313i bk7: 0a 12313i bk8: 0a 12313i bk9: 0a 12313i bk10: 0a 12313i bk11: 0a 12313i bk12: 0a 12313i bk13: 0a 12313i bk14: 0a 12313i bk15: 0a 12313i 

------------------------------------------------------------------------

Row_Buffer_Locality = -nan
Row_Buffer_Locality_read = -nan
Row_Buffer_Locality_write = -nan
Bank_Level_Parallism = -nan
Bank_Level_Parallism_Col = -nan
Bank_Level_Parallism_Ready = -nan
write_to_read_ratio_blp_rw_average = -nan
GrpLevelPara = -nan 

BW Util details:
bwutil = 0.000000 
total_CMD = 12313 
util_bw = 0 
Wasted_Col = 0 
Wasted_Row = 0 
Idle = 12313 

BW Util Bottlenecks: 
RCDc_limit = 0 
RCDWRc_limit = 0 
WTRc_limit = 0 
RTWc_limit = 0 
CCDLc_limit = 0 
rwq = 0 
CCDLc_limit_alone = 0 
WTRc_limit_alone = 0 
RTWc_limit_alone = 0 

Commands details: 
total_CMD = 12313 
n_nop = 12313 
Read = 0 
Write = 0 
L2_Alloc = 0 
L2_WB = 0 
n_act = 0 
n_pre = 0 
n_ref = 0 
n_req = 0 
total_req = 0 

Dual Bus Interface Util: 
issued_total_row = 0 
issued_total_col = 0 
Row_Bus_Util =  0.000000 
CoL_Bus_Util = 0.000000 
Either_Row_CoL_Bus_Util = 0.000000 
Issued_on_Two_Bus_Simul_Util = 0.000000 
issued_two_Eff = -nan 
queue_avg = 0.000000 


dram_util_bins: 0 0 0 0 0 0 0 0 0 0
dram_eff_bins: 0 0 0 0 0 0 0 0 0 0
mrqq: max=0 avg=0
Memory Partition 8: 
Cache L2_bank_016:
MSHR contents

Cache L2_bank_017:
MSHR contents

In Dram Latency Queue (total = 0): 
DRAM[8]: 16 bks, busW=4 BL=8 CL=16, tRRD=8 tCCD=2, tRCD=16 tRAS=37 tRP=16 tRC=52
n_cmd=12313 n_nop=12311 n_act=1 n_pre=0 n_ref_event=0 n_req=1 n_rd=1 n_rd_L2_A=0 n_write=0 n_wr_bk=0 bw_util=0.0001624
n_activity=52 dram_eff=0.03846
bk0: 0a 12313i bk1: 0a 12314i bk2: 0a 12314i bk3: 0a 12314i bk4: 1a 12297i bk5: 0a 12312i bk6: 0a 12312i bk7: 0a 12312i bk8: 0a 12312i bk9: 0a 12313i bk10: 0a 12313i bk11: 0a 12313i bk12: 0a 12313i bk13: 0a 12313i bk14: 0a 12313i bk15: 0a 12313i 

------------------------------------------------------------------------

Row_Buffer_Locality = 0.000000
Row_Buffer_Locality_read = 0.000000
Row_Buffer_Locality_write = -nan
Bank_Level_Parallism = 1.000000
Bank_Level_Parallism_Col = 1.000000
Bank_Level_Parallism_Ready = 1.000000
write_to_read_ratio_blp_rw_average = 0.000000
GrpLevelPara = 1.000000 

BW Util details:
bwutil = 0.000162 
total_CMD = 12313 
util_bw = 2 
Wasted_Col = 16 
Wasted_Row = 0 
Idle = 12295 

BW Util Bottlenecks: 
RCDc_limit = 16 
RCDWRc_limit = 0 
WTRc_limit = 0 
RTWc_limit = 0 
CCDLc_limit = 0 
rwq = 0 
CCDLc_limit_alone = 0 
WTRc_limit_alone = 0 
RTWc_limit_alone = 0 

Commands details: 
total_CMD = 12313 
n_nop = 12311 
Read = 1 
Write = 0 
L2_Alloc = 0 
L2_WB = 0 
n_act = 1 
n_pre = 0 
n_ref = 0 
n_req = 1 
total_req = 1 

Dual Bus Interface Util: 
issued_total_row = 1 
issued_total_col = 1 
Row_Bus_Util =  0.000081 
CoL_Bus_Util = 0.000081 
Either_Row_CoL_Bus_Util = 0.000162 
Issued_on_Two_Bus_Simul_Util = 0.000000 
issued_two_Eff = 0.000000 
queue_avg = 0.000000 


dram_util_bins: 0 0 0 0 0 0 0 0 0 0
dram_eff_bins: 0 0 0 0 0 0 0 0 0 0
mrqq: max=0 avg=0
Memory Partition 9: 
Cache L2_bank_018:
MSHR contents

Cache L2_bank_019:
MSHR contents

In Dram Latency Queue (total = 0): 
DRAM[9]: 16 bks, busW=4 BL=8 CL=16, tRRD=8 tCCD=2, tRCD=16 tRAS=37 tRP=16 tRC=52
n_cmd=12313 n_nop=12313 n_act=0 n_pre=0 n_ref_event=0 n_req=0 n_rd=0 n_rd_L2_A=0 n_write=0 n_wr_bk=0 bw_util=0
n_activity=0 dram_eff=-nan
bk0: 0a 12313i bk1: 0a 12313i bk2: 0a 12313i bk3: 0a 12313i bk4: 0a 12313i bk5: 0a 12313i bk6: 0a 12313i bk7: 0a 12313i bk8: 0a 12313i bk9: 0a 12313i bk10: 0a 12313i bk11: 0a 12313i bk12: 0a 12313i bk13: 0a 12313i bk14: 0a 12313i bk15: 0a 12313i 

------------------------------------------------------------------------

Row_Buffer_Locality = -nan
Row_Buffer_Locality_read = -nan
Row_Buffer_Locality_write = -nan
Bank_Level_Parallism = -nan
Bank_Level_Parallism_Col = -nan
Bank_Level_Parallism_Ready = -nan
write_to_read_ratio_blp_rw_average = -nan
GrpLevelPara = -nan 

BW Util details:
bwutil = 0.000000 
total_CMD = 12313 
util_bw = 0 
Wasted_Col = 0 
Wasted_Row = 0 
Idle = 12313 

BW Util Bottlenecks: 
RCDc_limit = 0 
RCDWRc_limit = 0 
WTRc_limit = 0 
RTWc_limit = 0 
CCDLc_limit = 0 
rwq = 0 
CCDLc_limit_alone = 0 
WTRc_limit_alone = 0 
RTWc_limit_alone = 0 

Commands details: 
total_CMD = 12313 
n_nop = 12313 
Read = 0 
Write = 0 
L2_Alloc = 0 
L2_WB = 0 
n_act = 0 
n_pre = 0 
n_ref = 0 
n_req = 0 
total_req = 0 

Dual Bus Interface Util: 
issued_total_row = 0 
issued_total_col = 0 
Row_Bus_Util =  0.000000 
CoL_Bus_Util = 0.000000 
Either_Row_CoL_Bus_Util = 0.000000 
Issued_on_Two_Bus_Simul_Util = 0.000000 
issued_two_Eff = -nan 
queue_avg = 0.000000 


dram_util_bins: 0 0 0 0 0 0 0 0 0 0
dram_eff_bins: 0 0 0 0 0 0 0 0 0 0
mrqq: max=0 avg=0
Memory Partition 10: 
Cache L2_bank_020:
MSHR contents

Cache L2_bank_021:
MSHR contents

In Dram Latency Queue (total = 0): 
DRAM[10]: 16 bks, busW=4 BL=8 CL=16, tRRD=8 tCCD=2, tRCD=16 tRAS=37 tRP=16 tRC=52
n_cmd=12313 n_nop=12313 n_act=0 n_pre=0 n_ref_event=0 n_req=0 n_rd=0 n_rd_L2_A=0 n_write=0 n_wr_bk=0 bw_util=0
n_activity=0 dram_eff=-nan
bk0: 0a 12313i bk1: 0a 12313i bk2: 0a 12313i bk3: 0a 12313i bk4: 0a 12313i bk5: 0a 12313i bk6: 0a 12313i bk7: 0a 12313i bk8: 0a 12313i bk9: 0a 12313i bk10: 0a 12313i bk11: 0a 12313i bk12: 0a 12313i bk13: 0a 12313i bk14: 0a 12313i bk15: 0a 12313i 

------------------------------------------------------------------------

Row_Buffer_Locality = -nan
Row_Buffer_Locality_read = -nan
Row_Buffer_Locality_write = -nan
Bank_Level_Parallism = -nan
Bank_Level_Parallism_Col = -nan
Bank_Level_Parallism_Ready = -nan
write_to_read_ratio_blp_rw_average = -nan
GrpLevelPara = -nan 

BW Util details:
bwutil = 0.000000 
total_CMD = 12313 
util_bw = 0 
Wasted_Col = 0 
Wasted_Row = 0 
Idle = 12313 

BW Util Bottlenecks: 
RCDc_limit = 0 
RCDWRc_limit = 0 
WTRc_limit = 0 
RTWc_limit = 0 
CCDLc_limit = 0 
rwq = 0 
CCDLc_limit_alone = 0 
WTRc_limit_alone = 0 
RTWc_limit_alone = 0 

Commands details: 
total_CMD = 12313 
n_nop = 12313 
Read = 0 
Write = 0 
L2_Alloc = 0 
L2_WB = 0 
n_act = 0 
n_pre = 0 
n_ref = 0 
n_req = 0 
total_req = 0 

Dual Bus Interface Util: 
issued_total_row = 0 
issued_total_col = 0 
Row_Bus_Util =  0.000000 
CoL_Bus_Util = 0.000000 
Either_Row_CoL_Bus_Util = 0.000000 
Issued_on_Two_Bus_Simul_Util = 0.000000 
issued_two_Eff = -nan 
queue_avg = 0.000000 


dram_util_bins: 0 0 0 0 0 0 0 0 0 0
dram_eff_bins: 0 0 0 0 0 0 0 0 0 0
mrqq: max=0 avg=0
Memory Partition 11: 
Cache L2_bank_022:
MSHR contents

Cache L2_bank_023:
MSHR contents

In Dram Latency Queue (total = 0): 
DRAM[11]: 16 bks, busW=4 BL=8 CL=16, tRRD=8 tCCD=2, tRCD=16 tRAS=37 tRP=16 tRC=52
n_cmd=12313 n_nop=12313 n_act=0 n_pre=0 n_ref_event=0 n_req=0 n_rd=0 n_rd_L2_A=0 n_write=0 n_wr_bk=0 bw_util=0
n_activity=0 dram_eff=-nan
bk0: 0a 12313i bk1: 0a 12313i bk2: 0a 12313i bk3: 0a 12313i bk4: 0a 12313i bk5: 0a 12313i bk6: 0a 12313i bk7: 0a 12313i bk8: 0a 12313i bk9: 0a 12313i bk10: 0a 12313i bk11: 0a 12313i bk12: 0a 12313i bk13: 0a 12313i bk14: 0a 12313i bk15: 0a 12313i 

------------------------------------------------------------------------

Row_Buffer_Locality = -nan
Row_Buffer_Locality_read = -nan
Row_Buffer_Locality_write = -nan
Bank_Level_Parallism = -nan
Bank_Level_Parallism_Col = -nan
Bank_Level_Parallism_Ready = -nan
write_to_read_ratio_blp_rw_average = -nan
GrpLevelPara = -nan 

BW Util details:
bwutil = 0.000000 
total_CMD = 12313 
util_bw = 0 
Wasted_Col = 0 
Wasted_Row = 0 
Idle = 12313 

BW Util Bottlenecks: 
RCDc_limit = 0 
RCDWRc_limit = 0 
WTRc_limit = 0 
RTWc_limit = 0 
CCDLc_limit = 0 
rwq = 0 
CCDLc_limit_alone = 0 
WTRc_limit_alone = 0 
RTWc_limit_alone = 0 

Commands details: 
total_CMD = 12313 
n_nop = 12313 
Read = 0 
Write = 0 
L2_Alloc = 0 
L2_WB = 0 
n_act = 0 
n_pre = 0 
n_ref = 0 
n_req = 0 
total_req = 0 

Dual Bus Interface Util: 
issued_total_row = 0 
issued_total_col = 0 
Row_Bus_Util =  0.000000 
CoL_Bus_Util = 0.000000 
Either_Row_CoL_Bus_Util = 0.000000 
Issued_on_Two_Bus_Simul_Util = 0.000000 
issued_two_Eff = -nan 
queue_avg = 0.000000 


dram_util_bins: 0 0 0 0 0 0 0 0 0 0
dram_eff_bins: 0 0 0 0 0 0 0 0 0 0
mrqq: max=0 avg=0

========= L2 cache stats =========
L2_cache_bank[0]: Access = 186, Miss = 7, Miss_rate = 0.038, Pending_hits = 78, Reservation_fails = 0
L2_cache_bank[1]: Access = 142, Miss = 4, Miss_rate = 0.028, Pending_hits = 52, Reservation_fails = 0
L2_cache_bank[2]: Access = 89, Miss = 4, Miss_rate = 0.045, Pending_hits = 0, Reservation_fails = 0
L2_cache_bank[3]: Access = 140, Miss = 4, Miss_rate = 0.029, Pending_hits = 52, Reservation_fails = 0
L2_cache_bank[4]: Access = 84, Miss = 0, Miss_rate = 0.000, Pending_hits = 0, Reservation_fails = 0
L2_cache_bank[5]: Access = 84, Miss = 0, Miss_rate = 0.000, Pending_hits = 0, Reservation_fails = 0
L2_cache_bank[6]: Access = 87, Miss = 0, Miss_rate = 0.000, Pending_hits = 0, Reservation_fails = 0
L2_cache_bank[7]: Access = 84, Miss = 0, Miss_rate = 0.000, Pending_hits = 0, Reservation_fails = 0
L2_cache_bank[8]: Access = 85, Miss = 0, Miss_rate = 0.000, Pending_hits = 0, Reservation_fails = 0
L2_cache_bank[9]: Access = 85, Miss = 0, Miss_rate = 0.000, Pending_hits = 0, Reservation_fails = 0
L2_cache_bank[10]: Access = 86, Miss = 0, Miss_rate = 0.000, Pending_hits = 0, Reservation_fails = 0
L2_cache_bank[11]: Access = 86, Miss = 0, Miss_rate = 0.000, Pending_hits = 0, Reservation_fails = 0
L2_cache_bank[12]: Access = 85, Miss = 0, Miss_rate = 0.000, Pending_hits = 0, Reservation_fails = 0
L2_cache_bank[13]: Access = 86, Miss = 0, Miss_rate = 0.000, Pending_hits = 0, Reservation_fails = 0
L2_cache_bank[14]: Access = 84, Miss = 0, Miss_rate = 0.000, Pending_hits = 0, Reservation_fails = 0
L2_cache_bank[15]: Access = 84, Miss = 0, Miss_rate = 0.000, Pending_hits = 0, Reservation_fails = 0
L2_cache_bank[16]: Access = 106, Miss = 1, Miss_rate = 0.009, Pending_hits = 0, Reservation_fails = 0
L2_cache_bank[17]: Access = 90, Miss = 0, Miss_rate = 0.000, Pending_hits = 0, Reservation_fails = 0
L2_cache_bank[18]: Access = 90, Miss = 0, Miss_rate = 0.000, Pending_hits = 0, Reservation_fails = 0
L2_cache_bank[19]: Access = 89, Miss = 0, Miss_rate = 0.000, Pending_hits = 0, Reservation_fails = 0
L2_cache_bank[20]: Access = 88, Miss = 0, Miss_rate = 0.000, Pending_hits = 0, Reservation_fails = 0
L2_cache_bank[21]: Access = 88, Miss = 0, Miss_rate = 0.000, Pending_hits = 0, Reservation_fails = 0
L2_cache_bank[22]: Access = 91, Miss = 0, Miss_rate = 0.000, Pending_hits = 0, Reservation_fails = 0
L2_cache_bank[23]: Access = 88, Miss = 0, Miss_rate = 0.000, Pending_hits = 0, Reservation_fails = 0
L2_total_cache_accesses = 2307
L2_total_cache_misses = 20
L2_total_cache_miss_rate = 0.0087
L2_total_cache_pending_hits = 182
L2_total_cache_reservation_fails = 0
L2_total_cache_breakdown:
	L2_cache_stats_breakdown[GLOBAL_ACC_R][HIT] = 2088
	L2_cache_stats_breakdown[GLOBAL_ACC_R][HIT_RESERVED] = 0
	L2_cache_stats_breakdown[GLOBAL_ACC_R][MISS] = 2
	L2_cache_stats_breakdown[GLOBAL_ACC_R][RESERVATION_FAIL] = 0
[...]
n_cmd=478902 n_nop=463231 n_act=2126 n_pre=2110 n_ref_event=4568229571824690154 n_req=10639 n_rd=10348 n_rd_L2_A=0 n_write=0 n_wr_bk=1149 bw_util=0.04801
n_activity=114441 dram_eff=0.2009
bk0: 720a 472198i bk1: 706a 472324i bk2: 710a 472086i bk3: 718a 472228i bk4: 741a 471484i bk5: 755a 470842i bk6: 745a 466501i bk7: 722a 467463i bk8: 592a 471990i bk9: 563a 472381i bk10: 555a 474049i bk11: 563a 473687i bk12: 559a 473757i bk13: 543a 473919i bk14: 565a 473105i bk15: 591a 471981i 

------------------------------------------------------------------------

Row_Buffer_Locality = 0.801109
Row_Buffer_Locality_read = 0.815906
Row_Buffer_Locality_write = 0.274914
Bank_Level_Parallism = 1.822201
Bank_Level_Parallism_Col = 1.675637
Bank_Level_Parallism_Ready = 1.304322
write_to_read_ratio_blp_rw_average = 0.119070
GrpLevelPara = 1.472027 

BW Util details:
bwutil = 0.048014 
total_CMD = 478902 
util_bw = 22994 
Wasted_Col = 28948 
Wasted_Row = 17968 
Idle = 408992 

BW Util Bottlenecks: 
RCDc_limit = 24868 
RCDWRc_limit = 1108 
WTRc_limit = 5141 
RTWc_limit = 3883 
CCDLc_limit = 6302 
rwq = 0 
CCDLc_limit_alone = 5685 
WTRc_limit_alone = 4809 
RTWc_limit_alone = 3598 

Commands details: 
total_CMD = 478902 
n_nop = 463231 
Read = 10348 
Write = 0 
L2_Alloc = 0 
L2_WB = 1149 
n_act = 2126 
n_pre = 2110 
n_ref = 4568229571824690154 
n_req = 10639 
total_req = 11497 

Dual Bus Interface Util: 
issued_total_row = 4236 
issued_total_col = 11497 
Row_Bus_Util =  0.008845 
CoL_Bus_Util = 0.024007 
Either_Row_CoL_Bus_Util = 0.032723 
Issued_on_Two_Bus_Simul_Util = 0.000129 
issued_two_Eff = 0.003956 
queue_avg = 0.208705 


dram_util_bins: 0 0 0 0 0 0 0 0 0 0
dram_eff_bins: 0 0 0 0 0 0 0 0 0 0
mrqq: max=33 avg=0.208705
Memory Partition 7: 
Cache L2_bank_014:
MSHR contents

Cache L2_bank_015:
MSHR contents

In Dram Latency Queue (total = 0): 
DRAM[7]: 16 bks, busW=4 BL=8 CL=16, tRRD=8 tCCD=2, tRCD=16 tRAS=37 tRP=16 tRC=52
n_cmd=478902 n_nop=463439 n_act=2058 n_pre=2042 n_ref_event=0 n_req=10611 n_rd=10331 n_rd_L2_A=0 n_write=0 n_wr_bk=1111 bw_util=0.04778
n_activity=110142 dram_eff=0.2078
bk0: 717a 472280i bk1: 677a 472366i bk2: 726a 472595i bk3: 723a 472475i bk4: 715a 471271i bk5: 740a 471709i bk6: 697a 467528i bk7: 715a 466613i bk8: 613a 471690i bk9: 585a 472307i bk10: 568a 474368i bk11: 571a 473775i bk12: 586a 473225i bk13: 539a 473647i bk14: 584a 473179i bk15: 575a 472221i 

------------------------------------------------------------------------

Row_Buffer_Locality = 0.807087
Row_Buffer_Locality_read = 0.821121
Row_Buffer_Locality_write = 0.289286
Bank_Level_Parallism = 1.877975
Bank_Level_Parallism_Col = 1.715393
Bank_Level_Parallism_Ready = 1.311758
write_to_read_ratio_blp_rw_average = 0.124935
GrpLevelPara = 1.506824 

BW Util details:
bwutil = 0.047784 
total_CMD = 478902 
util_bw = 22884 
Wasted_Col = 27525 
Wasted_Row = 16885 
Idle = 411608 

BW Util Bottlenecks: 
RCDc_limit = 23691 
RCDWRc_limit = 1062 
WTRc_limit = 4447 
RTWc_limit = 4099 
CCDLc_limit = 6000 
rwq = 0 
CCDLc_limit_alone = 5425 
WTRc_limit_alone = 4226 
RTWc_limit_alone = 3745 

Commands details: 
total_CMD = 478902 
n_nop = 463439 
Read = 10331 
Write = 0 
L2_Alloc = 0 
L2_WB = 1111 
n_act = 2058 
n_pre = 2042 
n_ref = 0 
n_req = 10611 
total_req = 11442 

Dual Bus Interface Util: 
issued_total_row = 4100 
issued_total_col = 11442 
Row_Bus_Util =  0.008561 
CoL_Bus_Util = 0.023892 
Either_Row_CoL_Bus_Util = 0.032288 
Issued_on_Two_Bus_Simul_Util = 0.000165 
issued_two_Eff = 0.005109 
queue_avg = 0.216930 


dram_util_bins: 0 0 0 0 0 0 0 0 0 0
dram_eff_bins: 0 0 0 0 0 0 0 0 0 0
mrqq: max=36 avg=0.21693
Memory Partition 8: 
Cache L2_bank_016:
MSHR contents

Cache L2_bank_017:
MSHR contents

In Dram Latency Queue (total = 0): 
DRAM[8]: 16 bks, busW=4 BL=8 CL=16, tRRD=8 tCCD=2, tRCD=16 tRAS=37 tRP=16 tRC=52
n_cmd=478902 n_nop=463501 n_act=2046 n_pre=2030 n_ref_event=0 n_req=10550 n_rd=10261 n_rd_L2_A=0 n_write=0 n_wr_bk=1143 bw_util=0.04763
n_activity=111175 dram_eff=0.2052
bk0: 675a 472962i bk1: 687a 472565i bk2: 711a 472660i bk3: 709a 472665i bk4: 760a 470713i bk5: 717a 471756i bk6: 701a 468291i bk7: 714a 466727i bk8: 594a 471545i bk9: 589a 472347i bk10: 557a 473935i bk11: 584a 474162i bk12: 561a 473033i bk13: 574a 473596i bk14: 559a 473152i bk15: 569a 473043i 

------------------------------------------------------------------------

Row_Buffer_Locality = 0.806919
Row_Buffer_Locality_read = 0.820583
Row_Buffer_Locality_write = 0.321799
Bank_Level_Parallism = 1.825379
Bank_Level_Parallism_Col = 1.676168
Bank_Level_Parallism_Ready = 1.300948
write_to_read_ratio_blp_rw_average = 0.121561
GrpLevelPara = 1.489303 

BW Util details:
bwutil = 0.047626 
total_CMD = 478902 
util_bw = 22808 
Wasted_Col = 28068 
Wasted_Row = 17091 
Idle = 410935 

BW Util Bottlenecks: 
RCDc_limit = 23977 
RCDWRc_limit = 1031 
WTRc_limit = 5214 
RTWc_limit = 3955 
CCDLc_limit = 6010 
rwq = 0 
CCDLc_limit_alone = 5346 
WTRc_limit_alone = 4843 
RTWc_limit_alone = 3662 

Commands details: 
total_CMD = 478902 
n_nop = 463501 
Read = 10261 
Write = 0 
L2_Alloc = 0 
L2_WB = 1143 
n_act = 2046 
n_pre = 2030 
n_ref = 0 
n_req = 10550 
total_req = 11404 

Dual Bus Interface Util: 
issued_total_row = 4076 
issued_total_col = 11404 
Row_Bus_Util =  0.008511 
CoL_Bus_Util = 0.023813 
Either_Row_CoL_Bus_Util = 0.032159 
Issued_on_Two_Bus_Simul_Util = 0.000165 
issued_two_Eff = 0.005130 
queue_avg = 0.194418 


dram_util_bins: 0 0 0 0 0 0 0 0 0 0
dram_eff_bins: 0 0 0 0 0 0 0 0 0 0
mrqq: max=26 avg=0.194418
Memory Partition 9: 
Cache L2_bank_018:
MSHR contents

Cache L2_bank_019:
MSHR contents

In Dram Latency Queue (total = 0): 
DRAM[9]: 16 bks, busW=4 BL=8 CL=16, tRRD=8 tCCD=2, tRCD=16 tRAS=37 tRP=16 tRC=52
n_cmd=478902 n_nop=463456 n_act=2077 n_pre=2061 n_ref_event=0 n_req=10557 n_rd=10277 n_rd_L2_A=0 n_write=0 n_wr_bk=1111 bw_util=0.04756
n_activity=110311 dram_eff=0.2065
bk0: 691a 471519i bk1: 706a 472227i bk2: 716a 472864i bk3: 725a 473022i bk4: 713a 471180i bk5: 731a 471183i bk6: 707a 466647i bk7: 726a 466297i bk8: 578a 472227i bk9: 601a 472412i bk10: 563a 473577i bk11: 580a 473362i bk12: 559a 472974i bk13: 552a 473335i bk14: 563a 473925i bk15: 566a 473175i 

------------------------------------------------------------------------

Row_Buffer_Locality = 0.804490
Row_Buffer_Locality_read = 0.818819
Row_Buffer_Locality_write = 0.278571
Bank_Level_Parallism = 1.883342
Bank_Level_Parallism_Col = 1.730917
Bank_Level_Parallism_Ready = 1.319132
write_to_read_ratio_blp_rw_average = 0.122229
GrpLevelPara = 1.530315 

BW Util details:
bwutil = 0.047559 
total_CMD = 478902 
util_bw = 22776 
Wasted_Col = 27875 
Wasted_Row = 17132 
Idle = 411119 

BW Util Bottlenecks: 
RCDc_limit = 24060 
RCDWRc_limit = 1065 
WTRc_limit = 5398 
RTWc_limit = 4220 
CCDLc_limit = 6051 
rwq = 0 
CCDLc_limit_alone = 5363 
WTRc_limit_alone = 5034 
RTWc_limit_alone = 3896 

Commands details: 
total_CMD = 478902 
n_nop = 463456 
Read = 10277 
Write = 0 
L2_Alloc = 0 
L2_WB = 1111 
n_act = 2077 
n_pre = 2061 
n_ref = 0 
n_req = 10557 
total_req = 11388 

Dual Bus Interface Util: 
issued_total_row = 4138 
issued_total_col = 11388 
Row_Bus_Util =  0.008641 
CoL_Bus_Util = 0.023779 
Either_Row_CoL_Bus_Util = 0.032253 
Issued_on_Two_Bus_Simul_Util = 0.000167 
issued_two_Eff = 0.005179 
queue_avg = 0.222190 


dram_util_bins: 0 0 0 0 0 0 0 0 0 0
dram_eff_bins: 0 0 0 0 0 0 0 0 0 0
mrqq: max=33 avg=0.22219
Memory Partition 10: 
Cache L2_bank_020:
MSHR contents

Cache L2_bank_021:
MSHR contents

In Dram Latency Queue (total = 0): 
DRAM[10]: 16 bks, busW=4 BL=8 CL=16, tRRD=8 tCCD=2, tRCD=16 tRAS=37 tRP=16 tRC=52
n_cmd=478902 n_nop=463654 n_act=1995 n_pre=1979 n_ref_event=0 n_req=10478 n_rd=10187 n_rd_L2_A=0 n_write=0 n_wr_bk=1155 bw_util=0.04737
n_activity=109000 dram_eff=0.2081
bk0: 683a 472770i bk1: 697a 472013i bk2: 723a 472800i bk3: 732a 473111i bk4: 730a 471058i bk5: 718a 471399i bk6: 687a 467419i bk7: 684a 467313i bk8: 567a 473407i bk9: 602a 472454i bk10: 570a 473691i bk11: 547a 474717i bk12: 565a 473594i bk13: 549a 474533i bk14: 558a 472915i bk15: 575a 472652i 

------------------------------------------------------------------------

Row_Buffer_Locality = 0.810651
Row_Buffer_Locality_read = 0.824090
Row_Buffer_Locality_write = 0.340206
Bank_Level_Parallism = 1.822620
Bank_Level_Parallism_Col = 1.678281
Bank_Level_Parallism_Ready = 1.265914
write_to_read_ratio_blp_rw_average = 0.122143
GrpLevelPara = 1.473878 

BW Util details:
bwutil = 0.047367 
total_CMD = 478902 
util_bw = 22684 
Wasted_Col = 27227 
Wasted_Row = 16640 
Idle = 412351 

BW Util Bottlenecks: 
RCDc_limit = 23221 
RCDWRc_limit = 1082 
WTRc_limit = 4477 
RTWc_limit = 3957 
CCDLc_limit = 6039 
rwq = 0 
CCDLc_limit_alone = 5300 
WTRc_limit_alone = 4107 
RTWc_limit_alone = 3588 

Commands details: 
total_CMD = 478902 
n_nop = 463654 
Read = 10187 
Write = 0 
L2_Alloc = 0 
L2_WB = 1155 
n_act = 1995 
n_pre = 1979 
n_ref = 0 
n_req = 10478 
total_req = 11342 

Dual Bus Interface Util: 
issued_total_row = 3974 
issued_total_col = 11342 
Row_Bus_Util =  0.008298 
CoL_Bus_Util = 0.023683 
Either_Row_CoL_Bus_Util = 0.031840 
Issued_on_Two_Bus_Simul_Util = 0.000142 
issued_two_Eff = 0.004460 
queue_avg = 0.204050 


dram_util_bins: 0 0 0 0 0 0 0 0 0 0
dram_eff_bins: 0 0 0 0 0 0 0 0 0 0
mrqq: max=38 avg=0.20405
Memory Partition 11: 
Cache L2_bank_022:
MSHR contents

Cache L2_bank_023:
MSHR contents

In Dram Latency Queue (total = 0): 
DRAM[11]: 16 bks, busW=4 BL=8 CL=16, tRRD=8 tCCD=2, tRCD=16 tRAS=37 tRP=16 tRC=52
n_cmd=478902 n_nop=463160 n_act=2100 n_pre=2084 n_ref_event=0 n_req=10746 n_rd=10440 n_rd_L2_A=0 n_write=0 n_wr_bk=1204 bw_util=0.04863
n_activity=111665 dram_eff=0.2086
bk0: 692a 472238i bk1: 718a 472201i bk2: 734a 472543i bk3: 705a 473594i bk4: 745a 469846i bk5: 754a 470228i bk6: 713a 466695i bk7: 697a 467589i bk8: 612a 471750i bk9: 596a 471508i bk10: 595a 473719i bk11: 578a 473556i bk12: 568a 472915i bk13: 566a 473396i bk14: 595a 472495i bk15: 572a 472224i 

------------------------------------------------------------------------

Row_Buffer_Locality = 0.805509
Row_Buffer_Locality_read = 0.819828
Row_Buffer_Locality_write = 0.316993
Bank_Level_Parallism = 1.915201
Bank_Level_Parallism_Col = 1.772928
Bank_Level_Parallism_Ready = 1.385002
write_to_read_ratio_blp_rw_average = 0.122925
GrpLevelPara = 1.528255 

BW Util details:
bwutil = 0.048628 
total_CMD = 478902 
util_bw = 23288 
Wasted_Col = 28351 
Wasted_Row = 16963 
Idle = 410300 

BW Util Bottlenecks: 
RCDc_limit = 24244 
RCDWRc_limit = 1086 
WTRc_limit = 4929 
RTWc_limit = 4157 
CCDLc_limit = 6163 
rwq = 0 
CCDLc_limit_alone = 5481 
WTRc_limit_alone = 4570 
RTWc_limit_alone = 3834 

Commands details: 
total_CMD = 478902 
n_nop = 463160 
Read = 10440 
Write = 0 
L2_Alloc = 0 
L2_WB = 1204 
n_act = 2100 
n_pre = 2084 
n_ref = 0 
n_req = 10746 
total_req = 11644 

Dual Bus Interface Util: 
issued_total_row = 4184 
issued_total_col = 11644 
Row_Bus_Util =  0.008737 
CoL_Bus_Util = 0.024314 
Either_Row_CoL_Bus_Util = 0.032871 
Issued_on_Two_Bus_Simul_Util = 0.000180 
issued_two_Eff = 0.005463 
queue_avg = 0.233898 


dram_util_bins: 0 0 0 0 0 0 0 0 0 0
dram_eff_bins: 0 0 0 0 0 0 0 0 0 0
mrqq: max=39 avg=0.233898

========= L2 cache stats =========
L2_cache_bank[0]: Access = 69591, Miss = 10200, Miss_rate = 0.147, Pending_hits = 83, Reservation_fails = 0
L2_cache_bank[1]: Access = 61628, Miss = 5400, Miss_rate = 0.088, Pending_hits = 58, Reservation_fails = 0
L2_cache_bank[2]: Access = 61560, Miss = 5370, Miss_rate = 0.087, Pending_hits = 7, Reservation_fails = 0
L2_cache_bank[3]: Access = 61310, Miss = 5326, Miss_rate = 0.087, Pending_hits = 60, Reservation_fails = 0
L2_cache_bank[4]: Access = 61551, Miss = 5353, Miss_rate = 0.087, Pending_hits = 58, Reservation_fails = 0
L2_cache_bank[5]: Access = 61600, Miss = 5467, Miss_rate = 0.089, Pending_hits = 58, Reservation_fails = 0
L2_cache_bank[6]: Access = 61370, Miss = 5360, Miss_rate = 0.087, Pending_hits = 5, Reservation_fails = 0
L2_cache_bank[7]: Access = 61270, Miss = 5297, Miss_rate = 0.086, Pending_hits = 12, Reservation_fails = 0
L2_cache_bank[8]: Access = 61958, Miss = 5501, Miss_rate = 0.089, Pending_hits = 9, Reservation_fails = 0
L2_cache_bank[9]: Access = 62242, Miss = 5437, Miss_rate = 0.087, Pending_hits = 6, Reservation_fails = 0
L2_cache_bank[10]: Access = 62016, Miss = 5318, Miss_rate = 0.086, Pending_hits = 4, Reservation_fails = 0
L2_cache_bank[11]: Access = 61877, Miss = 5394, Miss_rate = 0.087, Pending_hits = 7, Reservation_fails = 0
L2_cache_bank[12]: Access = 62226, Miss = 5471, Miss_rate = 0.088, Pending_hits = 4, Reservation_fails = 0
L2_cache_bank[13]: Access = 62011, Miss = 5568, Miss_rate = 0.090, Pending_hits = 3, Reservation_fails = 0
L2_cache_bank[14]: Access = 62275, Miss = 5506, Miss_rate = 0.088, Pending_hits = 4, Reservation_fails = 0
L2_cache_bank[15]: Access = 62324, Miss = 5374, Miss_rate = 0.086, Pending_hits = 8, Reservation_fails = 0
L2_cache_bank[16]: Access = 61235, Miss = 5400, Miss_rate = 0.088, Pending_hits = 4, Reservation_fails = 0
L2_cache_bank[17]: Access = 61321, Miss = 5430, Miss_rate = 0.089, Pending_hits = 2, Reservation_fails = 0
L2_cache_bank[18]: Access = 61096, Miss = 5324, Miss_rate = 0.087, Pending_hits = 2, Reservation_fails = 0
L2_cache_bank[19]: Access = 61220, Miss = 5484, Miss_rate = 0.090, Pending_hits = 6, Reservation_fails = 0
L2_cache_bank[20]: Access = 60831, Miss = 5310, Miss_rate = 0.087, Pending_hits = 6, Reservation_fails = 0
L2_cache_bank[21]: Access = 61713, Miss = 5362, Miss_rate = 0.087, Pending_hits = 5, Reservation_fails = 0
L2_cache_bank[22]: Access = 61456, Miss = 5572, Miss_rate = 0.091, Pending_hits = 3, Reservation_fails = 0
L2_cache_bank[23]: Access = 61698, Miss = 5460, Miss_rate = 0.088, Pending_hits = 3, Reservation_fails = 0
L2_total_cache_accesses = 1487379
L2_total_cache_misses = 134684
L2_total_cache_miss_rate = 0.0906
L2_total_cache_pending_hits = 417
L2_total_cache_reservation_fails = 0
L2_total_cache_breakdown:
	L2_cache_stats_breakdown[GLOBAL_ACC_R][HIT] = 1068210
	L2_cache_stats_breakdown[GLOBAL_ACC_R][HIT_RESERVED] = 109
	L2_cache_stats_breakdown[GLOBAL_ACC_R][MISS] = 44628
	L2_cache_stats_breakdown[GLOBAL_ACC_R][RESERVATION_FAIL] = 0
	L2_cache_stats_breakdown[GLOBAL_ACC_R][SECTOR_MISS] = 78705
	L2_cache_stats_breakdown[LOCAL_ACC_R][HIT] = 0
	L2_cache_stats_breakdown[LOCAL_ACC_R][HIT_RESERVED] = 0
	L2_cache_stats_breakdown[LOCAL_ACC_R][MISS] = 0
	L2_cache_stats_breakdown[LOCAL_ACC_R][RESERVATION_FAIL] = 0
	L2_cache_stats_breakdown[LOCAL_ACC_R][SECTOR_MISS] = 0
	L2_cache_stats_breakdown[CONST_ACC_R][HIT] = 0
	L2_cache_stats_breakdown[CONST_ACC_R][HIT_RESERVED] = 26
	L2_cache_stats_breakdown[CONST_ACC_R][MISS] = 1
	L2_cache_stats_breakdown[CONST_ACC_R][RESERVATION_FAIL] = 0
	L2_cache_stats_breakdown[CONST_ACC_R][SECTOR_MISS] = 1
	L2_cache_stats_breakdown[TEXTURE_ACC_R][HIT] = 0
	L2_cache_stats_breakdown[TEXTURE_ACC_R][HIT_RESERVED] = 0
	L2_cache_stats_breakdown[TEXTURE_ACC_R][MISS] = 0
	L2_cache_stats_breakdown[TEXTURE_ACC_R][RESERVATION_FAIL] = 0
	L2_cache_stats_breakdown[TEXTURE_ACC_R][SECTOR_MISS] = 0
	L2_cache_stats_breakdown[GLOBAL_ACC_W][HIT] = 284016
	L2_cache_stats_breakdown[GLOBAL_ACC_W][HIT_RESERVED] = 22
	L2_cache_stats_breakdown[GLOBAL_ACC_W][MISS] = 1408
	L2_cache_stats_breakdown[GLOBAL_ACC_W][RESERVATION_FAIL] = 0
	L2_cache_stats_breakdown[GLOBAL_ACC_W][SECTOR_MISS] = 9917
	L2_cache_stats_breakdown[LOCAL_ACC_W][HIT] = 0
	L2_cache_stats_breakdown[LOCAL_ACC_W][HIT_RESERVED] = 0
	L2_cache_stats_breakdown[LOCAL_ACC_W][MISS] = 0
	L2_cache_stats_breakdown[LOCAL_ACC_W][RESERVATION_FAIL] = 0
	L2_cache_stats_breakdown[LOCAL_ACC_W][SECTOR_MISS] = 0
	L2_cache_stats_breakdown[L1_WRBK_ACC][HIT] = 0
	L2_cache_stats_breakdown[L1_WRBK_ACC][HIT_RESERVED] = 0
	L2_cache_stats_breakdown[L1_WRBK_ACC][MISS] = 0
	L2_cache_stats_breakdown[L1_WRBK_ACC][RESERVATION_FAIL] = 0
	L2_cache_stats_breakdown[L1_WRBK_ACC][SECTOR_MISS] = 0
	L2_cache_stats_breakdown[L2_WRBK_ACC][HIT] = 0
	L2_cache_stats_breakdown[L2_WRBK_ACC][HIT_RESERVED] = 0
	L2_cache_stats_breakdown[L2_WRBK_ACC][MISS] = 0
	L2_cache_stats_breakdown[L2_WRBK_ACC][RESERVATION_FAIL] = 0
	L2_cache_stats_breakdown[L2_WRBK_ACC][SECTOR_MISS] = 0
	L2_cache_stats_breakdown[INST_ACC_R][HIT] = 52
	L2_cache_stats_breakdown[INST_ACC_R][HIT_RESERVED] = 260
	L2_cache_stats_breakdown[INST_ACC_R][MISS] = 6
	L2_cache_stats_breakdown[INST_ACC_R][RESERVATION_FAIL] = 0
	L2_cache_stats_breakdown[INST_ACC_R][SECTOR_MISS] = 18
	L2_cache_stats_breakdown[L1_WR_ALLOC_R][HIT] = 0
	L2_cache_stats_breakdown[L1_WR_ALLOC_R][HIT_RESERVED] = 0
	L2_cache_stats_breakdown[L1_WR_ALLOC_R][MISS] = 0
	L2_cache_stats_breakdown[L1_WR_ALLOC_R][RESERVATION_FAIL] = 0
	L2_cache_stats_breakdown[L1_WR_ALLOC_R][SECTOR_MISS] = 0
	L2_cache_stats_breakdown[L2_WR_ALLOC_R][HIT] = 0
	L2_cache_stats_breakdown[L2_WR_ALLOC_R][HIT_RESERVED] = 0
	L2_cache_stats_breakdown[L2_WR_ALLOC_R][MISS] = 0
	L2_cache_stats_breakdown[L2_WR_ALLOC_R][RESERVATION_FAIL] = 0
	L2_cache_stats_breakdown[L2_WR_ALLOC_R][SECTOR_MISS] = 0
	L2_cache_stats_breakdown[GLOBAL_ACC_R][TOTAL_ACCESS] = 1191652
	L2_cache_stats_breakdown[CONST_ACC_R][TOTAL_ACCESS] = 28
	L2_cache_stats_breakdown[GLOBAL_ACC_W][TOTAL_ACCESS] = 295363
	L2_cache_stats_breakdown[INST_ACC_R][TOTAL_ACCESS] = 336
L2_total_cache_reservation_fail_breakdown:
L2_cache_data_port_util = 0.211
L2_cache_fill_port_util = 0.019

icnt_total_pkts_mem_to_simt=1487379
icnt_total_pkts_simt_to_mem=1487113
LD_mem_lat_dist  0 0 0 0 0 0 0 0 0 0 0 0 0 0 0 0 0 0 0 0 0 0 0 0 0 0 0
ST_mem_lat_dist  0 0 0 0 0 0 0 0 0 0 0 0 0 0 0 0 0 0 0 0 0 0 0 0 0 0 0
----------------------------Interconnect-DETAILS--------------------------------
Class 0:
Packet latency average = 5.08716
	minimum = 5
	maximum = 8
Network latency average = 5.08716
	minimum = 5
	maximum = 8
Slowest packet = 2970414
Flit latency average = 5.08716
	minimum = 5
	maximum = 8
Slowest flit = 2970414
Fragmentation average = 0
	minimum = 0
	maximum = 0
Injected packet rate average = 0.0934861
	minimum = 0.0728534 (at node 22)
	maximum = 0.138768 (at node 5)
Accepted packet rate average = 0.0934861
	minimum = 0.0728534 (at node 22)
	maximum = 0.138768 (at node 5)
Injected flit rate average = 0.0934861
	minimum = 0.0728534 (at node 22)
	maximum = 0.138768 (at node 5)
Accepted flit rate average= 0.0934861
	minimum = 0.0728534 (at node 22)
	maximum = 0.138768 (at node 5)
Injected packet length average = 1
Accepted packet length average = 1
Total in-flight flits = 0 (0 measured)
====== Overall Traffic Statistics ======
====== Traffic class 0 ======
Packet latency average = 41.322 (20 samples)
	minimum = 5 (20 samples)
	maximum = 189.5 (20 samples)
Network latency average = 26.9235 (20 samples)
	minimum = 5 (20 samples)
	maximum = 108.8 (20 samples)
Flit latency average = 26.9235 (20 samples)
	minimum = 5 (20 samples)
	maximum = 108.8 (20 samples)
Fragmentation average = 0 (20 samples)
	minimum = 0 (20 samples)
	maximum = 0 (20 samples)
Injected packet rate average = 0.146952 (20 samples)
	minimum = 0.104602 (20 samples)
	maximum = 0.355648 (20 samples)
Accepted packet rate average = 0.146952 (20 samples)
	minimum = 0.104602 (20 samples)
	maximum = 0.355957 (20 samples)
Injected flit rate average = 0.146952 (20 samples)
	minimum = 0.104602 (20 samples)
	maximum = 0.355648 (20 samples)
Accepted flit rate average = 0.146952 (20 samples)
	minimum = 0.104602 (20 samples)
	maximum = 0.355957 (20 samples)
Injected packet size average = 1 (20 samples)
Accepted packet size average = 1 (20 samples)
Hops average = 1 (20 samples)
----------------------------END-of-Interconnect-DETAILS-------------------------


gpgpu_simulation_time = 0 days, 0 hrs, 1 min, 48 sec (108 sec)
gpgpu_simulation_rate = 284850 (inst/sec)
gpgpu_simulation_rate = 2471 (cycle/sec)
gpgpu_silicon_slowdown = 338729x
Kernel Executed 10 times
Result stored in result.txt
GPGPU-Sim: *** exit detected ***
