

        *** GPGPU-Sim Simulator Version 4.0.0  [build gpgpu-sim_git-commit-90ec3399763d7c8512cfe7dc193473086c38ca38_modified_0.0] ***


GPGPU-Sim PTX: simulation mode 0 (can change with PTX_SIM_MODE_FUNC environment variable:
               1=functional simulation only, 0=detailed performance simulator)
GPGPU-Sim PTX: overriding embedded ptx with ptx file (PTX_SIM_USE_PTX_FILE is set)
GPGPU-Sim: Configuration options:

-save_embedded_ptx                      0 # saves ptx files embedded in binary as <n>.ptx
-keep                                   0 # keep intermediate files created by GPGPU-Sim when interfacing with external programs
-gpgpu_ptx_save_converted_ptxplus                    0 # Saved converted ptxplus to a file
-gpgpu_occupancy_sm_number                   62 # The SM number to pass to ptxas when getting register usage for computing GPU occupancy. This parameter is required in the config.
-ptx_opcode_latency_int      4,13,4,5,145,32 # Opcode latencies for integers <ADD,MAX,MUL,MAD,DIV,SHFL>Default 1,1,19,25,145,32
-ptx_opcode_latency_fp          4,13,4,4,39 # Opcode latencies for single precision floating points <ADD,MAX,MUL,MAD,DIV>Default 1,1,1,1,30
-ptx_opcode_latency_dp         8,19,8,8,330 # Opcode latencies for double precision floating points <ADD,MAX,MUL,MAD,DIV>Default 8,8,8,8,335
-ptx_opcode_latency_sfu                   20 # Opcode latencies for SFU instructionsDefault 8
-ptx_opcode_latency_tesnor                   64 # Opcode latencies for Tensor instructionsDefault 64
-ptx_opcode_initiation_int          1,1,1,1,4,4 # Opcode initiation intervals for integers <ADD,MAX,MUL,MAD,DIV,SHFL>Default 1,1,4,4,32,4
-ptx_opcode_initiation_fp            1,2,1,1,4 # Opcode initiation intervals for single precision floating points <ADD,MAX,MUL,MAD,DIV>Default 1,1,1,1,5
-ptx_opcode_initiation_dp          8,8,8,8,130 # Opcode initiation intervals for double precision floating points <ADD,MAX,MUL,MAD,DIV>Default 8,8,8,8,130
-ptx_opcode_initiation_sfu                    4 # Opcode initiation intervals for sfu instructionsDefault 8
-ptx_opcode_initiation_tensor                   64 # Opcode initiation intervals for tensor instructionsDefault 64
-cdp_latency         7200,8000,100,12000,1600 # CDP API latency <cudaStreamCreateWithFlags, cudaGetParameterBufferV2_init_perWarp, cudaGetParameterBufferV2_perKernel, cudaLaunchDeviceV2_init_perWarp, cudaLaunchDevicV2_perKernel>Default 7200,8000,100,12000,1600
-network_mode                           1 # Interconnection network mode
-inter_config_file   config_pascal_islip.icnt # Interconnection network config file
-icnt_in_buffer_limit                   64 # in_buffer_limit
-icnt_out_buffer_limit                   64 # out_buffer_limit
-icnt_subnets                           2 # subnets
-icnt_arbiter_algo                      1 # arbiter_algo
-icnt_verbose                           0 # inct_verbose
-icnt_grant_cycles                      1 # grant_cycles
-gpgpu_ptx_use_cuobjdump                    1 # Use cuobjdump to extract ptx and sass from binaries
-gpgpu_experimental_lib_support                    0 # Try to extract code from cuda libraries [Broken because of unknown cudaGetExportTable]
-checkpoint_option                      0 #  checkpointing flag (0 = no checkpoint)
-checkpoint_kernel                      1 #  checkpointing during execution of which kernel (1- 1st kernel)
-checkpoint_CTA                         0 #  checkpointing after # of CTA (< less than total CTA)
-resume_option                          0 #  resume flag (0 = no resume)
-resume_kernel                          0 #  Resume from which kernel (1= 1st kernel)
-resume_CTA                             0 #  resume from which CTA 
-checkpoint_CTA_t                       0 #  resume from which CTA 
-checkpoint_insn_Y                      0 #  resume from which CTA 
-gpgpu_ptx_convert_to_ptxplus                    0 # Convert SASS (native ISA) to ptxplus and run ptxplus
-gpgpu_ptx_force_max_capability                   61 # Force maximum compute capability
-gpgpu_ptx_inst_debug_to_file                    0 # Dump executed instructions' debug information to file
-gpgpu_ptx_inst_debug_file       inst_debug.txt # Executed instructions' debug output file
-gpgpu_ptx_inst_debug_thread_uid                    1 # Thread UID for executed instructions' debug output
-gpgpu_simd_model                       1 # 1 = post-dominator
-gpgpu_shader_core_pipeline              2048:32 # shader core pipeline config, i.e., {<nthread>:<warpsize>}
-gpgpu_tex_cache:l1  N:16:128:24,L:R:m:N:L,T:128:4,128:2 # per-shader L1 texture cache  (READ-ONLY) config  {<nsets>:<bsize>:<assoc>,<rep>:<wr>:<alloc>:<wr_alloc>,<mshr>:<N>:<merge>,<mq>:<rf>}
-gpgpu_const_cache:l1 N:128:64:2,L:R:f:N:L,S:2:64,4 # per-shader L1 constant memory cache  (READ-ONLY) config  {<nsets>:<bsize>:<assoc>,<rep>:<wr>:<alloc>:<wr_alloc>,<mshr>:<N>:<merge>,<mq>} 
-gpgpu_cache:il1     N:8:128:4,L:R:f:N:L,S:2:48,4 # shader L1 instruction cache config  {<nsets>:<bsize>:<assoc>,<rep>:<wr>:<alloc>:<wr_alloc>,<mshr>:<N>:<merge>,<mq>} 
-gpgpu_cache:dl1     S:4:128:96,L:L:s:N:L,A:256:8,16:0,32 # per-shader L1 data cache config  {<nsets>:<bsize>:<assoc>,<rep>:<wr>:<alloc>:<wr_alloc>,<mshr>:<N>:<merge>,<mq> | none}
-gpgpu_l1_banks                         2 # The number of L1 cache banks
-gpgpu_l1_banks_byte_interleaving                   32 # l1 banks byte interleaving granularity
-gpgpu_l1_banks_hashing_function                    0 # l1 banks hashing function
-gpgpu_l1_latency                      82 # L1 Hit Latency
-gpgpu_smem_latency                    24 # smem Latency
-gpgpu_cache:dl1PrefL1 S:4:128:96,L:L:s:N:L,A:256:8,16:0,32 # per-shader L1 data cache config  {<nsets>:<bsize>:<assoc>,<rep>:<wr>:<alloc>:<wr_alloc>,<mshr>:<N>:<merge>,<mq> | none}
-gpgpu_cache:dl1PrefShared S:4:128:96,L:L:s:N:L,A:256:8,16:0,32 # per-shader L1 data cache config  {<nsets>:<bsize>:<assoc>,<rep>:<wr>:<alloc>:<wr_alloc>,<mshr>:<N>:<merge>,<mq> | none}
-gpgpu_gmem_skip_L1D                    1 # global memory access skip L1D cache (implements -Xptxas -dlcm=cg, default=no skip)
-gpgpu_perfect_mem                      0 # enable perfect memory mode (no cache miss)
-n_regfile_gating_group                    4 # group of lanes that should be read/written together)
-gpgpu_clock_gated_reg_file                    0 # enable clock gated reg file for power calculations
-gpgpu_clock_gated_lanes                    0 # enable clock gated lanes for power calculations
-gpgpu_shader_registers                65536 # Number of registers per shader core. Limits number of concurrent CTAs. (default 8192)
-gpgpu_registers_per_block                 8192 # Maximum number of registers per CTA. (default 8192)
-gpgpu_ignore_resources_limitation                    1 # gpgpu_ignore_resources_limitation (default 0)
-gpgpu_shader_cta                      32 # Maximum number of concurrent CTAs in shader (default 8)
-gpgpu_num_cta_barriers                   16 # Maximum number of named barriers per CTA (default 16)
-gpgpu_n_clusters                      28 # number of processing clusters
-gpgpu_n_cores_per_cluster                    1 # number of simd cores per cluster
-gpgpu_n_cluster_ejection_buffer_size                   32 # number of packets in ejection buffer
-gpgpu_n_ldst_response_buffer_size                    2 # number of response packets in ld/st unit ejection buffer
-gpgpu_shmem_per_block                49152 # Size of shared memory per thread block or CTA (default 48kB)
-gpgpu_shmem_size                   98304 # Size of shared memory per shader core (default 16kB)
-gpgpu_adaptive_cache_config                    0 # adaptive_cache_config
-gpgpu_shmem_sizeDefault                98304 # Size of shared memory per shader core (default 16kB)
-gpgpu_shmem_size_PrefL1                98304 # Size of shared memory per shader core (default 16kB)
-gpgpu_shmem_size_PrefShared                98304 # Size of shared memory per shader core (default 16kB)
-gpgpu_shmem_num_banks                   32 # Number of banks in the shared memory in each shader core (default 16)
-gpgpu_shmem_limited_broadcast                    0 # Limit shared memory to do one broadcast per cycle (default on)
-gpgpu_shmem_warp_parts                    1 # Number of portions a warp is divided into for shared memory bank conflict check 
-gpgpu_mem_unit_ports                    1 # The number of memory transactions allowed per core cycle
-gpgpu_shmem_warp_parts                    1 # Number of portions a warp is divided into for shared memory bank conflict check 
-gpgpu_warpdistro_shader                   -1 # Specify which shader core to collect the warp size distribution from
-gpgpu_warp_issue_shader                    0 # Specify which shader core to collect the warp issue distribution from
-gpgpu_local_mem_map                    1 # Mapping from local memory space address to simulated GPU physical address space (default = enabled)
-gpgpu_num_reg_banks                   16 # Number of register banks (default = 8)
-gpgpu_reg_bank_use_warp_id                    0 # Use warp ID in mapping registers to banks (default = off)
-gpgpu_sub_core_model                    1 # Sub Core Volta/Pascal model (default = off)
-gpgpu_enable_specialized_operand_collector                    0 # enable_specialized_operand_collector
-gpgpu_operand_collector_num_units_sp                    4 # number of collector units (default = 4)
-gpgpu_operand_collector_num_units_dp                    0 # number of collector units (default = 0)
-gpgpu_operand_collector_num_units_sfu                    4 # number of collector units (default = 4)
-gpgpu_operand_collector_num_units_int                    0 # number of collector units (default = 0)
-gpgpu_operand_collector_num_units_tensor_core                    4 # number of collector units (default = 4)
-gpgpu_operand_collector_num_units_mem                    2 # number of collector units (default = 2)
-gpgpu_operand_collector_num_units_gen                    8 # number of collector units (default = 0)
-gpgpu_operand_collector_num_in_ports_sp                    1 # number of collector unit in ports (default = 1)
-gpgpu_operand_collector_num_in_ports_dp                    0 # number of collector unit in ports (default = 0)
-gpgpu_operand_collector_num_in_ports_sfu                    1 # number of collector unit in ports (default = 1)
-gpgpu_operand_collector_num_in_ports_int                    0 # number of collector unit in ports (default = 0)
-gpgpu_operand_collector_num_in_ports_tensor_core                    1 # number of collector unit in ports (default = 1)
-gpgpu_operand_collector_num_in_ports_mem                    1 # number of collector unit in ports (default = 1)
-gpgpu_operand_collector_num_in_ports_gen                    8 # number of collector unit in ports (default = 0)
-gpgpu_operand_collector_num_out_ports_sp                    1 # number of collector unit in ports (default = 1)
-gpgpu_operand_collector_num_out_ports_dp                    0 # number of collector unit in ports (default = 0)
-gpgpu_operand_collector_num_out_ports_sfu                    1 # number of collector unit in ports (default = 1)
-gpgpu_operand_collector_num_out_ports_int                    0 # number of collector unit in ports (default = 0)
-gpgpu_operand_collector_num_out_ports_tensor_core                    1 # number of collector unit in ports (default = 1)
-gpgpu_operand_collector_num_out_ports_mem                    1 # number of collector unit in ports (default = 1)
-gpgpu_operand_collector_num_out_ports_gen                    8 # number of collector unit in ports (default = 0)
-gpgpu_coalesce_arch                   61 # Coalescing arch (GT200 = 13, Fermi = 20)
-gpgpu_num_sched_per_core                    4 # Number of warp schedulers per core
-gpgpu_max_insn_issue_per_warp                    2 # Max number of instructions that can be issued per warp in one cycle by scheduler (either 1 or 2)
-gpgpu_dual_issue_diff_exec_units                    1 # should dual issue use two different execution unit resources (Default = 1)
-gpgpu_simt_core_sim_order                    1 # Select the simulation order of cores in a cluster (0=Fix, 1=Round-Robin)
-gpgpu_pipeline_widths 4,0,0,4,4,4,0,0,4,4,8 # Pipeline widths ID_OC_SP,ID_OC_DP,ID_OC_INT,ID_OC_SFU,ID_OC_MEM,OC_EX_SP,OC_EX_DP,OC_EX_INT,OC_EX_SFU,OC_EX_MEM,EX_WB,ID_OC_TENSOR_CORE,OC_EX_TENSOR_CORE
-gpgpu_tensor_core_avail                    0 # Tensor Core Available (default=0)
-gpgpu_num_sp_units                     4 # Number of SP units (default=1)
-gpgpu_num_dp_units                     0 # Number of DP units (default=0)
-gpgpu_num_int_units                    0 # Number of INT units (default=0)
-gpgpu_num_sfu_units                    4 # Number of SF units (default=1)
-gpgpu_num_tensor_core_units                    0 # Number of tensor_core units (default=1)
-gpgpu_num_mem_units                    1 # Number if ldst units (default=1) WARNING: not hooked up to anything
-gpgpu_scheduler                      gto # Scheduler configuration: < lrr | gto | two_level_active > If two_level_active:<num_active_warps>:<inner_prioritization>:<outer_prioritization>For complete list of prioritization values see shader.h enum scheduler_prioritization_typeDefault: gto
-gpgpu_concurrent_kernel_sm                    0 # Support concurrent kernels on a SM (default = disabled)
-gpgpu_perfect_inst_const_cache                    1 # perfect inst and const cache mode, so all inst and const hits in the cache(default = disabled)
-gpgpu_inst_fetch_throughput                    8 # the number of fetched intruction per warp each cycle
-gpgpu_reg_file_port_throughput                    2 # the number ports of the register file
-specialized_unit_1         0,4,4,4,4,BRA # specialized unit config {<enabled>,<num_units>:<latency>:<initiation>,<ID_OC_SPEC>:<OC_EX_SPEC>,<NAME>}
-specialized_unit_2         0,4,4,4,4,BRA # specialized unit config {<enabled>,<num_units>:<latency>:<initiation>,<ID_OC_SPEC>:<OC_EX_SPEC>,<NAME>}
-specialized_unit_3         0,4,4,4,4,BRA # specialized unit config {<enabled>,<num_units>:<latency>:<initiation>,<ID_OC_SPEC>:<OC_EX_SPEC>,<NAME>}
-specialized_unit_4         0,4,4,4,4,BRA # specialized unit config {<enabled>,<num_units>:<latency>:<initiation>,<ID_OC_SPEC>:<OC_EX_SPEC>,<NAME>}
-specialized_unit_5         0,4,4,4,4,BRA # specialized unit config {<enabled>,<num_units>:<latency>:<initiation>,<ID_OC_SPEC>:<OC_EX_SPEC>,<NAME>}
-specialized_unit_6         0,4,4,4,4,BRA # specialized unit config {<enabled>,<num_units>:<latency>:<initiation>,<ID_OC_SPEC>:<OC_EX_SPEC>,<NAME>}
-specialized_unit_7         0,4,4,4,4,BRA # specialized unit config {<enabled>,<num_units>:<latency>:<initiation>,<ID_OC_SPEC>:<OC_EX_SPEC>,<NAME>}
-specialized_unit_8         0,4,4,4,4,BRA # specialized unit config {<enabled>,<num_units>:<latency>:<initiation>,<ID_OC_SPEC>:<OC_EX_SPEC>,<NAME>}
-gpgpu_perf_sim_memcpy                    1 # Fill the L2 cache on memcpy
-gpgpu_simple_dram_model                    0 # simple_dram_model with fixed latency and BW
-gpgpu_dram_scheduler                    1 # 0 = fifo, 1 = FR-FCFS (defaul)
-gpgpu_dram_partition_queues          32:32:32:32 # i2$:$2d:d2$:$2i
-l2_ideal                               0 # Use a ideal L2 cache that always hit
-gpgpu_cache:dl2     S:64:128:16,L:B:m:L:P,A:256:64,16:0,32 # unified banked L2 data cache config  {<nsets>:<bsize>:<assoc>,<rep>:<wr>:<alloc>:<wr_alloc>,<mshr>:<N>:<merge>,<mq>}
-gpgpu_cache:dl2_texture_only                    0 # L2 cache used for texture only
-gpgpu_n_mem                           12 # number of memory modules (e.g. memory controllers) in gpu
-gpgpu_n_sub_partition_per_mchannel                    2 # number of memory subpartition in each memory module
-gpgpu_n_mem_per_ctrlr                    1 # number of memory chips per memory controller
-gpgpu_memlatency_stat                   14 # track and display latency statistics 0x2 enables MC, 0x4 enables queue logs
-gpgpu_frfcfs_dram_sched_queue_size                   64 # 0 = unlimited (default); # entries per chip
-gpgpu_dram_return_queue_size                   64 # 0 = unlimited (default); # entries per chip
-gpgpu_dram_buswidth                    4 # default = 4 bytes (8 bytes per cycle at DDR)
-gpgpu_dram_burst_length                    8 # Burst length of each DRAM request (default = 4 data bus cycle)
-dram_data_command_freq_ratio                    4 # Frequency ratio between DRAM data bus and command bus (default = 2 times, i.e. DDR)
-gpgpu_dram_timing_opt nbk=16:CCD=2:RRD=8:RCD=16:RAS=37:RP=16:RC=52: CL=16:WL=6:CDLR=7:WR=16:nbkgrp=4:CCDL=4:RTPL=3 # DRAM timing parameters = {nbk:tCCD:tRRD:tRCD:tRAS:tRP:tRC:CL:WL:tCDLR:tWR:nbkgrp:tCCDL:tRTPL}
-gpgpu_l2_rop_latency                  120 # ROP queue latency (default 85)
-dram_latency                         100 # DRAM latency (default 30)
-dram_dual_bus_interface                    0 # dual_bus_interface (default = 0) 
-dram_bnk_indexing_policy                    0 # dram_bnk_indexing_policy (0 = normal indexing, 1 = Xoring with the higher bits) (Default = 0)
-dram_bnkgrp_indexing_policy                    1 # dram_bnkgrp_indexing_policy (0 = take higher bits, 1 = take lower bits) (Default = 0)
-dram_seperate_write_queue_enable                    0 # Seperate_Write_Queue_Enable
-dram_write_queue_size             32:28:16 # Write_Queue_Size
-dram_elimnate_rw_turnaround                    0 # elimnate_rw_turnaround i.e set tWTR and tRTW = 0
-icnt_flit_size                        40 # icnt_flit_size
-gpgpu_mem_addr_mapping dramid@8;00000000.00000000.00000000.00000000.0000RRRR.RRRRRRRR.RBBBCCCC.BCCSSSSS # mapping memory address to dram model {dramid@<start bit>;<memory address map>}
-gpgpu_mem_addr_test                    0 # run sweep test to check address mapping for aliased address
-gpgpu_mem_address_mask                    1 # 0 = old addressing mask, 1 = new addressing mask, 2 = new add. mask + flipped bank sel and chip sel bits
-gpgpu_memory_partition_indexing                    4 # 0 = no indexing, 1 = bitwise xoring, 2 = IPoly, 3 = custom indexing
-gpuwattch_xml_file         gpuwattch.xml # GPUWattch XML file
-power_simulation_enabled                    1 # Turn on power simulator (1=On, 0=Off)
-power_per_cycle_dump                    0 # Dump detailed power output each cycle
-power_trace_enabled                    0 # produce a file for the power trace (1=On, 0=Off)
-power_trace_zlevel                     6 # Compression level of the power trace output log (0=no comp, 9=highest)
-steady_power_levels_enabled                    0 # produce a file for the steady power levels (1=On, 0=Off)
-steady_state_definition                  8:4 # allowed deviation:number of samples
-gpgpu_max_cycle                        0 # terminates gpu simulation early (0 = no limit)
-gpgpu_max_insn                         0 # terminates gpu simulation early (0 = no limit)
-gpgpu_max_cta                          0 # terminates gpu simulation early (0 = no limit)
-gpgpu_max_completed_cta                    0 # terminates gpu simulation early (0 = no limit)
-gpgpu_runtime_stat                   500 # display runtime statistics such as dram utilization {<freq>:<flag>}
-liveness_message_freq                    1 # Minimum number of seconds between simulation liveness messages (0 = always print)
-gpgpu_compute_capability_major                    6 # Major compute capability version number
-gpgpu_compute_capability_minor                    1 # Minor compute capability version number
-gpgpu_flush_l1_cache                    1 # Flush L1 cache at the end of each kernel call
-gpgpu_flush_l2_cache                    0 # Flush L2 cache at the end of each kernel call
-gpgpu_deadlock_detect                    1 # Stop the simulation at deadlock (1=on (default), 0=off)
-gpgpu_ptx_instruction_classification                    0 # if enabled will classify ptx instruction types per kernel (Max 255 kernels now)
-gpgpu_ptx_sim_mode                     0 # Select between Performance (default) or Functional simulation (1)
-gpgpu_clock_domains 1417.0:1417.0:1417.0:2500.0 # Clock Domain Frequencies in MhZ {<Core Clock>:<ICNT Clock>:<L2 Clock>:<DRAM Clock>}
-gpgpu_max_concurrent_kernel                    8 # maximum kernels that can run concurrently on GPU
-gpgpu_cflog_interval                    0 # Interval between each snapshot in control flow logger
-visualizer_enabled                     0 # Turn on visualizer output (1=On, 0=Off)
-visualizer_outputfile                 NULL # Specifies the output log file for visualizer
-visualizer_zlevel                      6 # Compression level of the visualizer output log (0=no comp, 9=highest)
-gpgpu_stack_size_limit                 1024 # GPU thread stack size
-gpgpu_heap_size_limit              8388608 # GPU malloc heap size 
-gpgpu_runtime_sync_depth_limit                    2 # GPU device runtime synchronize depth
-gpgpu_runtime_pending_launch_count_limit                 2048 # GPU device runtime pending launch count
-trace_enabled                          0 # Turn on traces
-trace_components                    none # comma seperated list of traces to enable. Complete list found in trace_streams.tup. Default none
-trace_sampling_core                    0 # The core which is printed using CORE_DPRINTF. Default 0
-trace_sampling_memory_partition                   -1 # The memory partition which is printed using MEMPART_DPRINTF. Default -1 (i.e. all)
-enable_ptx_file_line_stats                    1 # Turn on PTX source line statistic profiling. (1 = On)
-ptx_line_stats_filename gpgpu_inst_stats.txt # Output file for PTX source line statistics.
-gpgpu_kernel_launch_latency                 5000 # Kernel launch latency in cycles. Default: 0
-gpgpu_cdp_enabled                      0 # Turn on CDP
-gpgpu_TB_launch_latency                    0 # thread block launch latency in cycles. Default: 0
DRAM Timing Options:
nbk                                    16 # number of banks
CCD                                     2 # column to column delay
RRD                                     8 # minimal delay between activation of rows in different banks
RCD                                    16 # row to column delay
RAS                                    37 # time needed to activate row
RP                                     16 # time needed to precharge (deactivate) row
RC                                     52 # row cycle time
CDLR                                    7 # switching from write to read (changes tWTR)
WR                                     16 # last data-in to row precharge
CL                                     16 # CAS latency
WL                                      6 # Write latency
nbkgrp                                  4 # number of bank groups
CCDL                                    4 # column to column delay between accesses to different bank groups
RTPL                                    3 # read to precharge delay between accesses to different bank groups
Total number of memory sub partition = 24
addr_dec_mask[CHIP]  = 0000000000000000 	high:64 low:0
addr_dec_mask[BK]    = 0000000000007080 	high:15 low:7
addr_dec_mask[ROW]   = 000000000fff8000 	high:28 low:15
addr_dec_mask[COL]   = 0000000000000f7f 	high:12 low:0
addr_dec_mask[BURST] = 000000000000001f 	high:5 low:0
sub_partition_id_mask = 0000000000000080
GPGPU-Sim uArch: clock freqs: 1417000000.000000:1417000000.000000:1417000000.000000:2500000000.000000
GPGPU-Sim uArch: clock periods: 0.00000000070571630205:0.00000000070571630205:0.00000000070571630205:0.00000000040000000000
*** Initializing Memory Statistics ***
GPGPU-Sim uArch: interconnect node map (shaderID+MemID to icntID)
GPGPU-Sim uArch: Memory nodes ID start from index: 28
GPGPU-Sim uArch:    0   1   2   3   4   5   6
GPGPU-Sim uArch:    7   8   9  10  11  12  13
GPGPU-Sim uArch:   14  15  16  17  18  19  20
GPGPU-Sim uArch:   21  22  23  24  25  26  27
GPGPU-Sim uArch:   28  29  30  31  32  33  34
GPGPU-Sim uArch:   35  36  37  38  39  40  41
GPGPU-Sim uArch:   42  43  44  45  46  47  48
GPGPU-Sim uArch:   49  50  51
GPGPU-Sim uArch: interconnect node reverse map (icntID to shaderID+MemID)
GPGPU-Sim uArch: Memory nodes start from ID: 28
GPGPU-Sim uArch:    0   1   2   3   4   5   6
GPGPU-Sim uArch:    7   8   9  10  11  12  13
GPGPU-Sim uArch:   14  15  16  17  18  19  20
GPGPU-Sim uArch:   21  22  23  24  25  26  27
GPGPU-Sim uArch:   28  29  30  31  32  33  34
GPGPU-Sim uArch:   35  36  37  38  39  40  41
GPGPU-Sim uArch:   42  43  44  45  46  47  48
GPGPU-Sim uArch:   49  50  51
eab13a6fcfab84acdf6a491547276f6a  /home/ishan/COA/Lab4/gpu-rodinia/cuda/pathfinder/a.out
Extracting PTX file and ptxas options    1: a.1.sm_52.ptx -arch=sm_52
GPGPU-Sim uArch: performance model initialization complete.
self exe links to: /home/ishan/COA/Lab4/gpu-rodinia/cuda/pathfinder/a.out
self exe links to: /home/ishan/COA/Lab4/gpu-rodinia/cuda/pathfinder/a.out
11.0
GPGPU-Sim PTX: __cudaRegisterFatBinary, fat_cubin_handle = 1, filename=default
self exe links to: /home/ishan/COA/Lab4/gpu-rodinia/cuda/pathfinder/a.out
Running md5sum using "md5sum /home/ishan/COA/Lab4/gpu-rodinia/cuda/pathfinder/a.out "
self exe links to: /home/ishan/COA/Lab4/gpu-rodinia/cuda/pathfinder/a.out
Extracting specific PTX file named a.1.sm_52.ptx 
GPGPU-Sim PTX: __cudaRegisterFunction _Z14dynproc_kerneliPiS_S_iiii : hostFun 0x0x563804d35ba4, fat_cubin_handle = 1
GPGPU-Sim PTX: Parsing a.1.sm_52.ptx
GPGPU-Sim PTX: allocating shared region for "_ZZ14dynproc_kerneliPiS_S_iiiiE4prev" from 0x0 to 0x400 (shared memory space)
GPGPU-Sim PTX: allocating shared region for "_ZZ14dynproc_kerneliPiS_S_iiiiE6result" from 0x400 to 0x800 (shared memory space)
GPGPU-Sim PTX: instruction assembly for function '_Z14dynproc_kerneliPiS_S_iiii'...   done.
GPGPU-Sim PTX: finished parsing EMBEDDED .ptx file a.1.sm_52.ptx
GPGPU-Sim PTX: loading globals with explicit initializers... 
GPGPU-Sim PTX: finished loading globals (0 bytes total).
GPGPU-Sim PTX: loading constants with explicit initializers...  done.
GPGPU-Sim PTX: Loading PTXInfo from a.1.sm_52.ptx
GPGPU-Sim PTX: Kernel '_Z14dynproc_kerneliPiS_S_iiii' : regs=18, lmem=0, smem=2048, cmem=368
pyramidHeight: 20
gridSize: [10000]
border:[20]
blockSize: 256
blockGrid:[47]
targetBlock:[216]
GPGPU-Sim PTX: Setting up arguments for 4 bytes starting at 0x7ffffec9639c..
GPGPU-Sim PTX: Setting up arguments for 8 bytes starting at 0x7ffffec96390..
GPGPU-Sim PTX: Setting up arguments for 8 bytes starting at 0x7ffffec96388..
GPGPU-Sim PTX: Setting up arguments for 8 bytes starting at 0x7ffffec96380..
GPGPU-Sim PTX: Setting up arguments for 4 bytes starting at 0x7ffffec96398..
GPGPU-Sim PTX: Setting up arguments for 4 bytes starting at 0x7ffffec9637c..
GPGPU-Sim PTX: Setting up arguments for 4 bytes starting at 0x7ffffec96430..
GPGPU-Sim PTX: Setting up arguments for 4 bytes starting at 0x7ffffec96438..

GPGPU-Sim PTX: cudaLaunch for 0x0x563804d35ba4 (mode=performance simulation) on stream 0
GPGPU-Sim PTX: finding reconvergence points for '_Z14dynproc_kerneliPiS_S_iiii'...
GPGPU-Sim PTX: Finding dominators for '_Z14dynproc_kerneliPiS_S_iiii'...
GPGPU-Sim PTX: Finding immediate dominators for '_Z14dynproc_kerneliPiS_S_iiii'...
GPGPU-Sim PTX: Finding postdominators for '_Z14dynproc_kerneliPiS_S_iiii'...
GPGPU-Sim PTX: Finding immediate postdominators for '_Z14dynproc_kerneliPiS_S_iiii'...
GPGPU-Sim PTX: pre-decoding instructions for '_Z14dynproc_kerneliPiS_S_iiii'...
GPGPU-Sim PTX: reconvergence points for _Z14dynproc_kerneliPiS_S_iiii...
GPGPU-Sim PTX:  1 (potential) branch divergence @  PC=0x0c0 (a.1.sm_52.ptx:61) @!%p3 bra BB0_2;
GPGPU-Sim PTX:    immediate post dominator      @  PC=0x110 (a.1.sm_52.ptx:75) bar.sync 0;
GPGPU-Sim PTX:  2 (potential) branch divergence @  PC=0x0c8 (a.1.sm_52.ptx:62) bra.uni BB0_1;
GPGPU-Sim PTX:    immediate post dominator      @  PC=0x0d0 (a.1.sm_52.ptx:65) cvta.to.global.u64 %rd4, %rd2;
GPGPU-Sim PTX:  3 (potential) branch divergence @  PC=0x120 (a.1.sm_52.ptx:77) @%p4 bra BB0_10;
GPGPU-Sim PTX:    immediate post dominator      @  PC=0x338 (a.1.sm_52.ptx:157) and.b16 %rs6, %rs8, 255;
GPGPU-Sim PTX:  4 (potential) branch divergence @  PC=0x208 (a.1.sm_52.ptx:109) @!%p12 bra BB0_6;
GPGPU-Sim PTX:    immediate post dominator      @  PC=0x2b8 (a.1.sm_52.ptx:135) bar.sync 0;
GPGPU-Sim PTX:  5 (potential) branch divergence @  PC=0x210 (a.1.sm_52.ptx:110) bra.uni BB0_5;
GPGPU-Sim PTX:    immediate post dominator      @  PC=0x218 (a.1.sm_52.ptx:113) ld.shared.u32 %r70, [%r2];
GPGPU-Sim PTX:  6 (potential) branch divergence @  PC=0x2c8 (a.1.sm_52.ptx:137) @%p15 bra BB0_10;
GPGPU-Sim PTX:    immediate post dominator      @  PC=0x338 (a.1.sm_52.ptx:157) and.b16 %rs6, %rs8, 255;
GPGPU-Sim PTX:  7 (potential) branch divergence @  PC=0x2d8 (a.1.sm_52.ptx:140) @%p16 bra BB0_9;
GPGPU-Sim PTX:    immediate post dominator      @  PC=0x310 (a.1.sm_52.ptx:150) bar.sync 0;
GPGPU-Sim PTX:  8 (potential) branch divergence @  PC=0x330 (a.1.sm_52.ptx:154) @%p17 bra BB0_4;
GPGPU-Sim PTX:    immediate post dominator      @  PC=0x338 (a.1.sm_52.ptx:157) and.b16 %rs6, %rs8, 255;
GPGPU-Sim PTX:  9 (potential) branch divergence @  PC=0x348 (a.1.sm_52.ptx:159) @%p18 bra BB0_12;
GPGPU-Sim PTX:    immediate post dominator      @  PC=0x390 (a.1.sm_52.ptx:171) ret;
GPGPU-Sim PTX: ... end of reconvergence points for _Z14dynproc_kerneliPiS_S_iiii
GPGPU-Sim PTX: ... done pre-decoding instructions for '_Z14dynproc_kerneliPiS_S_iiii'.
GPGPU-Sim PTX: pushing kernel '_Z14dynproc_kerneliPiS_S_iiii' to stream 0, gridDim= (47,1,1) blockDim = (256,1,1) 
GPGPU-Sim uArch: Shader 0 bind to kernel 1 '_Z14dynproc_kerneliPiS_S_iiii'
GPGPU-Sim uArch: CTA/core = 8, limited by: threads
GPGPU-Sim uArch: Shader 1 bind to kernel 1 '_Z14dynproc_kerneliPiS_S_iiii'
GPGPU-Sim uArch: Shader 2 bind to kernel 1 '_Z14dynproc_kerneliPiS_S_iiii'
GPGPU-Sim uArch: Shader 3 bind to kernel 1 '_Z14dynproc_kerneliPiS_S_iiii'
GPGPU-Sim uArch: Shader 4 bind to kernel 1 '_Z14dynproc_kerneliPiS_S_iiii'
GPGPU-Sim uArch: Shader 5 bind to kernel 1 '_Z14dynproc_kerneliPiS_S_iiii'
GPGPU-Sim uArch: Shader 6 bind to kernel 1 '_Z14dynproc_kerneliPiS_S_iiii'
GPGPU-Sim uArch: Shader 7 bind to kernel 1 '_Z14dynproc_kerneliPiS_S_iiii'
GPGPU-Sim uArch: Shader 8 bind to kernel 1 '_Z14dynproc_kerneliPiS_S_iiii'
GPGPU-Sim uArch: Shader 9 bind to kernel 1 '_Z14dynproc_kerneliPiS_S_iiii'
GPGPU-Sim uArch: Shader 10 bind to kernel 1 '_Z14dynproc_kerneliPiS_S_iiii'
GPGPU-Sim uArch: Shader 11 bind to kernel 1 '_Z14dynproc_kerneliPiS_S_iiii'
GPGPU-Sim uArch: Shader 12 bind to kernel 1 '_Z14dynproc_kerneliPiS_S_iiii'
GPGPU-Sim uArch: Shader 13 bind to kernel 1 '_Z14dynproc_kerneliPiS_S_iiii'
GPGPU-Sim uArch: Shader 14 bind to kernel 1 '_Z14dynproc_kerneliPiS_S_iiii'
GPGPU-Sim uArch: Shader 15 bind to kernel 1 '_Z14dynproc_kerneliPiS_S_iiii'
GPGPU-Sim uArch: Shader 16 bind to kernel 1 '_Z14dynproc_kerneliPiS_S_iiii'
GPGPU-Sim uArch: Shader 17 bind to kernel 1 '_Z14dynproc_kerneliPiS_S_iiii'
GPGPU-Sim uArch: Shader 18 bind to kernel 1 '_Z14dynproc_kerneliPiS_S_iiii'
GPGPU-Sim uArch: Shader 19 bind to kernel 1 '_Z14dynproc_kerneliPiS_S_iiii'
GPGPU-Sim uArch: Shader 20 bind to kernel 1 '_Z14dynproc_kerneliPiS_S_iiii'
GPGPU-Sim uArch: Shader 21 bind to kernel 1 '_Z14dynproc_kerneliPiS_S_iiii'
GPGPU-Sim uArch: Shader 22 bind to kernel 1 '_Z14dynproc_kerneliPiS_S_iiii'
GPGPU-Sim uArch: Shader 23 bind to kernel 1 '_Z14dynproc_kerneliPiS_S_iiii'
GPGPU-Sim uArch: Shader 24 bind to kernel 1 '_Z14dynproc_kerneliPiS_S_iiii'
GPGPU-Sim uArch: Shader 25 bind to kernel 1 '_Z14dynproc_kerneliPiS_S_iiii'
GPGPU-Sim uArch: Shader 26 bind to kernel 1 '_Z14dynproc_kerneliPiS_S_iiii'
GPGPU-Sim uArch: Shader 27 bind to kernel 1 '_Z14dynproc_kerneliPiS_S_iiii'
Destroy streams for kernel 1: size 0
kernel_name = _Z14dynproc_kerneliPiS_S_iiii 
kernel_launch_uid = 1 
gpu_sim_cycle = 18316
gpu_sim_insn = 12710760
gpu_ipc =     693.9703
gpu_tot_sim_cycle = 18316
gpu_tot_sim_insn = 12710760
gpu_tot_ipc =     693.9703
gpu_tot_issued_cta = 47
gpu_occupancy = 20.8358% 
gpu_tot_occupancy = 20.8358% 
max_total_param_size = 0
gpu_stall_dramfull = 0
gpu_stall_icnt2sh    = 0
partiton_level_parallism =       2.0714
partiton_level_parallism_total  =       2.0714
partiton_level_parallism_util =       4.0800
partiton_level_parallism_util_total  =       4.0800
L2_BW  =      93.9261 GB/Sec
L2_BW_total  =      93.9261 GB/Sec
gpu_total_sim_rate=385174

========= Core cache stats =========
L1I_cache:
	L1I_total_cache_accesses = 0
	L1I_total_cache_misses = 0
	L1I_total_cache_pending_hits = 0
	L1I_total_cache_reservation_fails = 0
L1D_cache:
	L1D_cache_core[0]: Access = 0, Miss = 0, Miss_rate = -nan, Pending_hits = 0, Reservation_fails = 0
	L1D_cache_core[1]: Access = 0, Miss = 0, Miss_rate = -nan, Pending_hits = 0, Reservation_fails = 0
	L1D_cache_core[2]: Access = 0, Miss = 0, Miss_rate = -nan, Pending_hits = 0, Reservation_fails = 0
	L1D_cache_core[3]: Access = 0, Miss = 0, Miss_rate = -nan, Pending_hits = 0, Reservation_fails = 0
	L1D_cache_core[4]: Access = 0, Miss = 0, Miss_rate = -nan, Pending_hits = 0, Reservation_fails = 0
	L1D_cache_core[5]: Access = 0, Miss = 0, Miss_rate = -nan, Pending_hits = 0, Reservation_fails = 0
	L1D_cache_core[6]: Access = 0, Miss = 0, Miss_rate = -nan, Pending_hits = 0, Reservation_fails = 0
	L1D_cache_core[7]: Access = 0, Miss = 0, Miss_rate = -nan, Pending_hits = 0, Reservation_fails = 0
	L1D_cache_core[8]: Access = 0, Miss = 0, Miss_rate = -nan, Pending_hits = 0, Reservation_fails = 0
	L1D_cache_core[9]: Access = 0, Miss = 0, Miss_rate = -nan, Pending_hits = 0, Reservation_fails = 0
	L1D_cache_core[10]: Access = 0, Miss = 0, Miss_rate = -nan, Pending_hits = 0, Reservation_fails = 0
	L1D_cache_core[11]: Access = 0, Miss = 0, Miss_rate = -nan, Pending_hits = 0, Reservation_fails = 0
	L1D_cache_core[12]: Access = 0, Miss = 0, Miss_rate = -nan, Pending_hits = 0, Reservation_fails = 0
	L1D_cache_core[13]: Access = 0, Miss = 0, Miss_rate = -nan, Pending_hits = 0, Reservation_fails = 0
	L1D_cache_core[14]: Access = 0, Miss = 0, Miss_rate = -nan, Pending_hits = 0, Reservation_fails = 0
	L1D_cache_core[15]: Access = 0, Miss = 0, Miss_rate = -nan, Pending_hits = 0, Reservation_fails = 0
	L1D_cache_core[16]: Access = 0, Miss = 0, Miss_rate = -nan, Pending_hits = 0, Reservation_fails = 0
	L1D_cache_core[17]: Access = 0, Miss = 0, Miss_rate = -nan, Pending_hits = 0, Reservation_fails = 0
	L1D_cache_core[18]: Access = 0, Miss = 0, Miss_rate = -nan, Pending_hits = 0, Reservation_fails = 0
	L1D_cache_core[19]: Access = 0, Miss = 0, Miss_rate = -nan, Pending_hits = 0, Reservation_fails = 0
	L1D_cache_core[20]: Access = 0, Miss = 0, Miss_rate = -nan, Pending_hits = 0, Reservation_fails = 0
	L1D_cache_core[21]: Access = 0, Miss = 0, Miss_rate = -nan, Pending_hits = 0, Reservation_fails = 0
	L1D_cache_core[22]: Access = 0, Miss = 0, Miss_rate = -nan, Pending_hits = 0, Reservation_fails = 0
	L1D_cache_core[23]: Access = 0, Miss = 0, Miss_rate = -nan, Pending_hits = 0, Reservation_fails = 0
	L1D_cache_core[24]: Access = 0, Miss = 0, Miss_rate = -nan, Pending_hits = 0, Reservation_fails = 0
	L1D_cache_core[25]: Access = 0, Miss = 0, Miss_rate = -nan, Pending_hits = 0, Reservation_fails = 0
	L1D_cache_core[26]: Access = 0, Miss = 0, Miss_rate = -nan, Pending_hits = 0, Reservation_fails = 0
	L1D_cache_core[27]: Access = 0, Miss = 0, Miss_rate = -nan, Pending_hits = 0, Reservation_fails = 0
	L1D_total_cache_accesses = 0
	L1D_total_cache_misses = 0
	L1D_total_cache_pending_hits = 0
	L1D_total_cache_reservation_fails = 0
	L1D_cache_data_port_util = 0.000
	L1D_cache_fill_port_util = 0.000
L1C_cache:
	L1C_total_cache_accesses = 0
	L1C_total_cache_misses = 0
	L1C_total_cache_pending_hits = 0
	L1C_total_cache_reservation_fails = 0
L1T_cache:
	L1T_total_cache_accesses = 0
	L1T_total_cache_misses = 0
	L1T_total_cache_pending_hits = 0
	L1T_total_cache_reservation_fails = 0

Total_core_cache_stats:
	Total_core_cache_stats_breakdown[GLOBAL_ACC_R][HIT] = 0
	Total_core_cache_stats_breakdown[GLOBAL_ACC_R][HIT_RESERVED] = 0
	Total_core_cache_stats_breakdown[GLOBAL_ACC_R][MISS] = 0
	Total_core_cache_stats_breakdown[GLOBAL_ACC_R][RESERVATION_FAIL] = 0
	Total_core_cache_stats_breakdown[GLOBAL_ACC_R][SECTOR_MISS] = 0
	Total_core_cache_stats_breakdown[LOCAL_ACC_R][HIT] = 0
	Total_core_cache_stats_breakdown[LOCAL_ACC_R][HIT_RESERVED] = 0
	Total_core_cache_stats_breakdown[LOCAL_ACC_R][MISS] = 0
	Total_core_cache_stats_breakdown[LOCAL_ACC_R][RESERVATION_FAIL] = 0
	Total_core_cache_stats_breakdown[LOCAL_ACC_R][SECTOR_MISS] = 0
	Total_core_cache_stats_breakdown[CONST_ACC_R][HIT] = 0
	Total_core_cache_stats_breakdown[CONST_ACC_R][HIT_RESERVED] = 0
	Total_core_cache_stats_breakdown[CONST_ACC_R][MISS] = 0
	Total_core_cache_stats_breakdown[CONST_ACC_R][RESERVATION_FAIL] = 0
	Total_core_cache_stats_breakdown[CONST_ACC_R][SECTOR_MISS] = 0
	Total_core_cache_stats_breakdown[TEXTURE_ACC_R][HIT] = 0
	Total_core_cache_stats_breakdown[TEXTURE_ACC_R][HIT_RESERVED] = 0
	Total_core_cache_stats_breakdown[TEXTURE_ACC_R][MISS] = 0
	Total_core_cache_stats_breakdown[TEXTURE_ACC_R][RESERVATION_FAIL] = 0
	Total_core_cache_stats_breakdown[TEXTURE_ACC_R][SECTOR_MISS] = 0
	Total_core_cache_stats_breakdown[GLOBAL_ACC_W][HIT] = 0
	Total_core_cache_stats_breakdown[GLOBAL_ACC_W][HIT_RESERVED] = 0
	Total_core_cache_stats_breakdown[GLOBAL_ACC_W][MISS] = 0
	Total_core_cache_stats_breakdown[GLOBAL_ACC_W][RESERVATION_FAIL] = 0
	Total_core_cache_stats_breakdown[GLOBAL_ACC_W][SECTOR_MISS] = 0
	Total_core_cache_stats_breakdown[LOCAL_ACC_W][HIT] = 0
	Total_core_cache_stats_breakdown[LOCAL_ACC_W][HIT_RESERVED] = 0
	Total_core_cache_stats_breakdown[LOCAL_ACC_W][MISS] = 0
	Total_core_cache_stats_breakdown[LOCAL_ACC_W][RESERVATION_FAIL] = 0
	Total_core_cache_stats_breakdown[LOCAL_ACC_W][SECTOR_MISS] = 0
	Total_core_cache_stats_breakdown[L1_WRBK_ACC][HIT] = 0
	Total_core_cache_stats_breakdown[L1_WRBK_ACC][HIT_RESERVED] = 0
	Total_core_cache_stats_breakdown[L1_WRBK_ACC][MISS] = 0
	Total_core_cache_stats_breakdown[L1_WRBK_ACC][RESERVATION_FAIL] = 0
	Total_core_cache_stats_breakdown[L1_WRBK_ACC][SECTOR_MISS] = 0
	Total_core_cache_stats_breakdown[L2_WRBK_ACC][HIT] = 0
	Total_core_cache_stats_breakdown[L2_WRBK_ACC][HIT_RESERVED] = 0
	Total_core_cache_stats_breakdown[L2_WRBK_ACC][MISS] = 0
	Total_core_cache_stats_breakdown[L2_WRBK_ACC][RESERVATION_FAIL] = 0
	Total_core_cache_stats_breakdown[L2_WRBK_ACC][SECTOR_MISS] = 0
	Total_core_cache_stats_breakdown[INST_ACC_R][HIT] = 0
	Total_core_cache_stats_breakdown[INST_ACC_R][HIT_RESERVED] = 0
	Total_core_cache_stats_breakdown[INST_ACC_R][MISS] = 0
	Total_core_cache_stats_breakdown[INST_ACC_R][RESERVATION_FAIL] = 0
	Total_core_cache_stats_breakdown[INST_ACC_R][SECTOR_MISS] = 0
	Total_core_cache_stats_breakdown[L1_WR_ALLOC_R][HIT] = 0
	Total_core_cache_stats_breakdown[L1_WR_ALLOC_R][HIT_RESERVED] = 0
	Total_core_cache_stats_breakdown[L1_WR_ALLOC_R][MISS] = 0
	Total_core_cache_stats_breakdown[L1_WR_ALLOC_R][RESERVATION_FAIL] = 0
	Total_core_cache_stats_breakdown[L1_WR_ALLOC_R][SECTOR_MISS] = 0
	Total_core_cache_stats_breakdown[L2_WR_ALLOC_R][HIT] = 0
	Total_core_cache_stats_breakdown[L2_WR_ALLOC_R][HIT_RESERVED] = 0
	Total_core_cache_stats_breakdown[L2_WR_ALLOC_R][MISS] = 0
	Total_core_cache_stats_breakdown[L2_WR_ALLOC_R][RESERVATION_FAIL] = 0
	Total_core_cache_stats_breakdown[L2_WR_ALLOC_R][SECTOR_MISS] = 0

Total_core_cache_fail_stats:
ctas_completed 47, Shader 0 warp_id issue ditsribution:
warp_id:
0, 1, 2, 3, 4, 5, 6, 7, 8, 9, 10, 11, 12, 13, 14, 15, 
distro:
1246, 1245, 1246, 1246, 1246, 1246, 1246, 1246, 1246, 1246, 1246, 1246, 1246, 1246, 1246, 1246, 
gpgpu_n_tot_thrd_icount = 13941152
gpgpu_n_tot_w_icount = 435661
gpgpu_n_stall_shd_mem = 29778
gpgpu_n_mem_read_local = 0
gpgpu_n_mem_write_local = 0
gpgpu_n_mem_read_global = 36366
gpgpu_n_mem_write_global = 1574
gpgpu_n_mem_texture = 0
gpgpu_n_mem_const = 0
gpgpu_n_load_insn  = 229320
gpgpu_n_store_insn = 10000
gpgpu_n_shmem_insn = 1306720
gpgpu_n_sstarr_insn = 0
gpgpu_n_tex_insn = 0
gpgpu_n_const_mem_insn = 0
gpgpu_n_param_mem_insn = 84224
gpgpu_n_shmem_bkconflict = 0
gpgpu_n_cache_bkconflict = 0
gpgpu_n_intrawarp_mshr_merge = 0
gpgpu_n_cmem_portconflict = 0
gpgpu_stall_shd_mem[c_mem][resource_stall] = 0
gpgpu_stall_shd_mem[s_mem][bk_conf] = 0
gpgpu_stall_shd_mem[gl_mem][resource_stall] = 0
gpgpu_stall_shd_mem[gl_mem][coal_stall] = 29778
gpgpu_stall_shd_mem[gl_mem][data_port_stall] = 0
gpu_reg_bank_conflict_stalls = 0
Warp Occupancy Distribution:
Stall:5283	W0_Idle:29391	W0_Scoreboard:1025059	W1:0	W2:0	W3:0	W4:0	W5:0	W6:0	W7:0	W8:0	W9:0	W10:0	W11:0	W12:3219	W13:2484	W14:2484	W15:2484	W16:2484	W17:2484	W18:2484	W19:2484	W20:3035	W21:2484	W22:2484	W23:2484	W24:2484	W25:2484	W26:2484	W27:2484	W28:2484	W29:2484	W30:2484	W31:2484	W32:384695
single_issue_nums: WS0:94181	WS1:94195	WS2:94183	WS3:93802	
dual_issue_nums: WS0:7436	WS1:7429	WS2:7435	WS3:7350	
traffic_breakdown_coretomem[GLOBAL_ACC_R] = 290928 {8:36366,}
traffic_breakdown_coretomem[GLOBAL_ACC_W] = 62960 {40:1574,}
traffic_breakdown_memtocore[GLOBAL_ACC_R] = 1454640 {40:36366,}
traffic_breakdown_memtocore[GLOBAL_ACC_W] = 12592 {8:1574,}
maxmflatency = 352 
max_icnt2mem_latency = 73 
maxmrqlatency = 67 
max_icnt2sh_latency = 42 
averagemflatency = 237 
avg_icnt2mem_latency = 13 
avg_mrq_latency = 3 
avg_icnt2sh_latency = 9 
mrq_lat_table:15255 	2467 	1944 	1692 	1117 	187 	4 	0 	0 	0 	0 	0 	0 	0 	0 	0 	0 	0 	0 	0 	0 	0 	0 	0 	0 	0 	0 	0 	0 	0 	0 	0 	
dq_lat_table:0 	0 	0 	0 	0 	0 	0 	0 	0 	0 	0 	0 	0 	0 	0 	0 	0 	0 	0 	0 	0 	0 	0 	0 	0 	0 	0 	0 	0 	0 	0 	0 	
mf_lat_table:0 	0 	0 	0 	0 	0 	0 	22751 	15189 	0 	0 	0 	0 	0 	0 	0 	0 	0 	0 	0 	0 	0 	0 	0 	0 	0 	0 	0 	0 	0 	0 	0 	
icnt2mem_lat_table:0 	0 	11482 	18358 	6306 	1695 	99 	0 	0 	0 	0 	0 	0 	0 	0 	0 	0 	0 	0 	0 	0 	0 	0 	0 	
icnt2sh_lat_table:0 	0 	16821 	17980 	3047 	92 	0 	0 	0 	0 	0 	0 	0 	0 	0 	0 	0 	0 	0 	0 	0 	0 	0 	0 	
mf_lat_pw_table:0 	0 	0 	0 	0 	0 	0 	24 	2 	0 	0 	0 	0 	0 	0 	0 	0 	0 	0 	0 	0 	0 	0 	0 	0 	0 	0 	0 	0 	0 	0 	0 	
maximum concurrent accesses to same row:
dram[0]:        56        72        56        64        56        56        60        52        52        48        72        32        48        64        24        32 
dram[1]:        56        60        40        68        80        64        44        60        36        28        40        52        56        40        60        68 
dram[2]:        52        56        32        44        40        76        72        56        28        32        64        64        44        24        76        40 
dram[3]:        64        36        56        56        36        52        24        60        68        76        44        56        56        52        76        96 
dram[4]:        80        72        52        56        64        56        48        48        44        56        72        64        60        76        72        60 
dram[5]:        52        40        56        52        56        56        76        60        60        56        48        44        68        76        60        52 
dram[6]:        60        44        24        68        40        56        48        60        40        48        52        60        56        52        56        60 
dram[7]:        52        56        72        36        76        44        68        72        36        48        68        64        36        44        32        76 
dram[8]:        84        56        56        44        64        68        48        92        88        64        56        40        76        52        64        48 
dram[9]:        48        52        72        36        68        48        76        32        40        36        32        64        52        68        44        52 
dram[10]:        64        44        84        56        72        44        60        48        60        68        48        48        56        80        72        72 
dram[11]:        40        56        60        76        56        80        56        44        60        40        60        68        72        60        48        40 
maximum service time to same row:
dram[0]:     10604     10599     11412     11414     12054     12048     12638     12950     13009     13580     14188     14473     15115     15072     15701     15695 
dram[1]:     10474     10470     11431     11410     12033     12054     12691     12638     13652     13011     13595     14485     15056     15067     15662     15686 
dram[2]:     10478     10476     11422     11432     12064     12057     12986     12946     13556     13698     14456     14199     15086     15275     15673     15678 
dram[3]:     10512     10580     11422     11433     12076     11825     12653     12972     13566     13677     14458     14474     15072     15076     16023     15674 
dram[4]:     10504     10606     11452     11471     12050     12059     12691     12422     13682     13571     14224     14220     15067     15058     15389     15383 
dram[5]:     10493     10589     11257     11429     12039     11828     12640     12665     13681     13692     14478     14452     15054     15075     16004     15716 
dram[6]:     10595     10101     11462     11432     12027     12063     12975     12990     13576     13571     14529     13596     14776     15058     16051     15659 
dram[7]:     10622     10826     11474     11463     12318     12036     12971     12416     13621     13664     14468     14471     15079     14782     15708     15701 
dram[8]:     10473     10498     11433     11434     12042     12029     12675     12648     13616     13601     14490     14485     15080     14778     15720     15678 
dram[9]:     10481     10618     11419     11637     12056     12046     12689     12670     13013     13588     14471     14473     15068     15084     15707     16002 
dram[10]:     10585     10589     11436     11437     12023     12398     12420     12682     13608     13583     13603     14189     15063     15062     15661     15674 
dram[11]:     10833     10476     11457     11240     11826     12055     13056     12971     13595     13627     14202     14511     15071     15068     15745     15686 
average row accesses per activate:
dram[0]: 74.000000 94.000000 44.000000 66.000000 112.000000 120.000000 116.000000 88.000000 112.000000 84.000000 116.000000 92.000000 92.000000 124.000000 60.000000 84.000000 
dram[1]: 73.000000 78.000000 50.000000 78.000000 160.000000 116.000000 80.000000 100.000000 96.000000 112.000000 104.000000 88.000000 108.000000 116.000000 152.000000 108.000000 
dram[2]: 92.000000 62.000000 48.000000 54.000000 100.000000 140.000000 112.000000 132.000000 104.000000 76.000000 116.000000 108.000000 108.000000 48.000000 148.000000 116.000000 
dram[3]: 82.000000 58.000000 66.000000 70.000000 108.000000 96.000000 92.000000 136.000000 116.000000 148.000000 92.000000 144.000000 116.000000 108.000000 128.000000 144.000000 
dram[4]: 100.000000 98.000000 54.000000 76.000000 120.000000 116.000000 112.000000 92.000000 124.000000 132.000000 132.000000 152.000000 128.000000 148.000000 132.000000 104.000000 
dram[5]: 74.000000 46.000000 60.000000 64.000000 124.000000 104.000000 120.000000 132.000000 96.000000 100.000000 108.000000 88.000000 116.000000 148.000000 84.000000 124.000000 
dram[6]: 68.000000 60.000000 58.000000 66.000000 100.000000 128.000000 100.000000 132.000000 84.000000 92.000000 100.000000 100.000000 84.000000 108.000000 96.000000 132.000000 
dram[7]: 76.000000 82.000000 64.000000 44.000000 124.000000 100.000000 116.000000 124.000000 84.000000 92.000000 136.000000 96.000000 96.000000 120.000000 120.000000 144.000000 
dram[8]: 70.000000 96.000000 66.000000 52.000000 120.000000 124.000000 116.000000 148.000000 140.000000 120.000000 96.000000 76.000000 140.000000 124.000000 120.000000 100.000000 
dram[9]: 62.000000 72.000000 76.000000 60.000000 128.000000 124.000000 172.000000 84.000000 96.000000 72.000000 96.000000 124.000000 128.000000 116.000000 108.000000 84.000000 
dram[10]: 80.000000 80.000000 74.000000 70.000000 112.000000 80.000000 112.000000 100.000000 112.000000 120.000000 100.000000 104.000000 116.000000 128.000000 156.000000 140.000000 
dram[11]: 64.000000 62.000000 64.000000 60.000000 96.000000 128.000000 92.000000 92.000000 96.000000 108.000000 104.000000 100.000000 132.000000 104.000000 88.000000 96.000000 
average row locality = 22666/240 = 94.441666
number of total memory accesses made:
dram[0]:         0         0         0         0         0         0         0         0         0         0         0         0         0         0         0         0 
dram[1]:         0         0         0         0         0         0         0         0         0         0         0         0         0         0         0         0 
dram[2]:         0         0         0         0         0         0         0         0         0         0         0         0         0         0         0         0 
dram[3]:         0         0         0         0         0         0         0         0         0         0         0         0         0         0         0         0 
dram[4]:         0         0         0         0         0         0         0         0         0         0         0         0         0         0         0         0 
dram[5]:         0         0         0         0         0         0         0         0         0         0         0         0         0         0         0         0 
dram[6]:         0         0         0         0         0         0         0         0         0         0         0         0         0         0         0         0 
dram[7]:         0         0         0         0         0         0         0         0         0         0         0         0         0         0         0         0 
dram[8]:         0         0         0         0         0         0         0         0         0         0         0         0         0         0         0         0 
dram[9]:         0         0         0         0         0         0         0         0         0         0         0         0         0         0         0         0 
dram[10]:         0         0         0         0         0         0         0         0         0         0         0         0         0         0         0         0 
dram[11]:         0         0         0         0         0         0         0         0         0         0         0         0         0         0         0         0 
total accesses: 0
min_bank_accesses = 0!
min_chip_accesses = 0!
number of total read accesses:
dram[0]:       148       188        88       132       112       120       116        88       112        84       116        92        92       124        60        84 
dram[1]:       146       156       100       156       160       116        80       100        96       112       104        88       108       116       152       108 
dram[2]:       184       124        96       108       100       140       112       132       104        76       116       108       108        48       148       116 
dram[3]:       164       116       132       140       108        96        92       136       116       148        92       144       116       108       128       144 
dram[4]:       200       196       108       152       120       116       112        92       124       132       132       152       128       148       132       104 
dram[5]:       148        92       120       128       124       104       120       132        96       100       108        88       116       148        84       124 
dram[6]:       136       120       116       132       100       128       100       132        84        92       100       100        84       108        96       132 
dram[7]:       152       164       128        88       124       100       116       124        84        92       136        96        96       120       120       144 
dram[8]:       140       192       132       104       120       124       116       148       140       120        96        76       140       124       120       100 
dram[9]:       124       144       152       120       128       124       172        84        96        72        96       124       128       116       108        84 
dram[10]:       160       160       148       140       112        80       112       100       112       120       100       104       116       128       156       140 
dram[11]:       128       124       128       120        96       128        92        92        96       108       104       100       132       104        88        96 
total dram reads = 22666
bank skew: 200/48 = 4.17
chip skew: 2148/1736 = 1.24
number of total write accesses:
dram[0]:         0         0         0         0         0         0         0         0         0         0         0         0         0         0         0         0 
dram[1]:         0         0         0         0         0         0         0         0         0         0         0         0         0         0         0         0 
dram[2]:         0         0         0         0         0         0         0         0         0         0         0         0         0         0         0         0 
dram[3]:         0         0         0         0         0         0         0         0         0         0         0         0         0         0         0         0 
dram[4]:         0         0         0         0         0         0         0         0         0         0         0         0         0         0         0         0 
dram[5]:         0         0         0         0         0         0         0         0         0         0         0         0         0         0         0         0 
dram[6]:         0         0         0         0         0         0         0         0         0         0         0         0         0         0         0         0 
dram[7]:         0         0         0         0         0         0         0         0         0         0         0         0         0         0         0         0 
dram[8]:         0         0         0         0         0         0         0         0         0         0         0         0         0         0         0         0 
dram[9]:         0         0         0         0         0         0         0         0         0         0         0         0         0         0         0         0 
dram[10]:         0         0         0         0         0         0         0         0         0         0         0         0         0         0         0         0 
dram[11]:         0         0         0         0         0         0         0         0         0         0         0         0         0         0         0         0 
total dram writes = 0
min_bank_accesses = 0!
min_chip_accesses = 0!
average mf latency per bank:
dram[0]:        380       409       515       455       391       397       420       396       371       368       400       392       387       359       430       381
dram[1]:        396       400       442       397       352       415       370       431       368       351       397       379       363       353       380       390
dram[2]:        419       486       421       431       380       381       357       381       407       470       380       360       367       412       389       392
dram[3]:        424       436       432       430       367       415       379       377       390       382       376       371       386       361       364       369
dram[4]:        384       380       496       426       401       374       379       371       353       348       383       359       352       353       350       387
dram[5]:        487       521       435       441       394       409       385       382       441       382       377       362       350       359       340       349
dram[6]:        467       438       450       459       338       386       390       371       429       406       374       415       399       367       374       357
dram[7]:        409       404       409       461       403       426       384       402       373       386       364       365       339       350       338       334
dram[8]:        411       403       452       429       389       391       371       359       360       385       378       428       354       336       385       349
dram[9]:        420       439       418       404       439       359       386       389       411       473       371       374       363       396       349       355
dram[10]:        448       428       453       401       407       385       377       374       382       394       398       411       360       401       349       353
dram[11]:        391       408       461       475       382       410       446       411       418       372       343       437       402       360       351       401
maximum mf latency per bank:
dram[0]:        314       340       284       292       311       315       291       291       281       275       274       284       273       283       274       280
dram[1]:        288       303       286       296       309       323       279       287       270       268       284       286       280       271       289       284
dram[2]:        323       316       275       281       308       324       296       298       271       278       283       274       285       271       285       282
dram[3]:        288       316       293       302       284       301       284       280       283       272       278       289       281       285       284       279
dram[4]:        348       339       293       292       301       291       291       291       276       280       284       283       284       285       286       279
dram[5]:        328       289       290       293       291       336       300       295       282       290       279       278       273       278       277       274
dram[6]:        321       319       299       294       296       290       285       287       287       284       279       289       290       292       272       288
dram[7]:        319       312       280       293       302       297       288       316       283       278       283       293       277       280       281       287
dram[8]:        318       316       314       301       318       322       284       296       306       292       303       297       288       277       286       289
dram[9]:        301       293       282       282       306       320       300       294       274       280       273       276       313       312       276       285
dram[10]:        352       321       306       297       310       295       292       291       300       286       280       276       288       275       282       282
dram[11]:        300       311       285       283       301       324       297       289       289       290       284       288       276       274       280       279
Memory Partition 0: 
Cache L2_bank_000:
MSHR contents

Cache L2_bank_001:
MSHR contents

In Dram Latency Queue (total = 0): 
DRAM[0]: 16 bks, busW=4 BL=8 CL=16, tRRD=8 tCCD=2, tRCD=16 tRAS=37 tRP=16 tRC=52
n_cmd=32313 n_nop=30501 n_act=36 n_pre=20 n_ref_event=94798618135200 n_req=1756 n_rd=1756 n_rd_L2_A=0 n_write=0 n_wr_bk=0 bw_util=0.1087
n_activity=9048 dram_eff=0.3882
bk0: 148a 31951i bk1: 188a 31815i bk2: 88a 32097i bk3: 132a 31979i bk4: 112a 32013i bk5: 120a 31990i bk6: 116a 32069i bk7: 88a 32075i bk8: 112a 32059i bk9: 84a 32116i bk10: 116a 32058i bk11: 92a 32108i bk12: 92a 32087i bk13: 124a 32018i bk14: 60a 32171i bk15: 84a 32099i 

------------------------------------------------------------------------

Row_Buffer_Locality = 0.988611
Row_Buffer_Locality_read = 0.988611
Row_Buffer_Locality_write = -nan
Bank_Level_Parallism = 1.189761
Bank_Level_Parallism_Col = 0.676764
Bank_Level_Parallism_Ready = 1.034169
write_to_read_ratio_blp_rw_average = 0.000000
GrpLevelPara = 0.000000 

BW Util details:
bwutil = 0.108687 
total_CMD = 32313 
util_bw = 3512 
Wasted_Col = 1939 
Wasted_Row = 221 
Idle = 26641 

BW Util Bottlenecks: 
RCDc_limit = 471 
RCDWRc_limit = 0 
WTRc_limit = 0 
RTWc_limit = 0 
CCDLc_limit = 1567 
rwq = 0 
CCDLc_limit_alone = 1567 
WTRc_limit_alone = 0 
RTWc_limit_alone = 0 

Commands details: 
total_CMD = 32313 
n_nop = 30501 
Read = 1756 
Write = 0 
L2_Alloc = 0 
L2_WB = 0 
n_act = 36 
n_pre = 20 
n_ref = 94798618135200 
n_req = 1756 
total_req = 1756 

Dual Bus Interface Util: 
issued_total_row = 56 
issued_total_col = 1756 
Row_Bus_Util =  0.001733 
CoL_Bus_Util = 0.054343 
Either_Row_CoL_Bus_Util = 0.056077 
Issued_on_Two_Bus_Simul_Util = 0.000000 
issued_two_Eff = 0.000000 
queue_avg = 0.323863 


dram_util_bins: 0 0 0 0 0 0 0 0 0 0
dram_eff_bins: 0 0 0 0 0 0 0 0 0 0
mrqq: max=30 avg=0.323863
Memory Partition 1: 
Cache L2_bank_002:
MSHR contents

Cache L2_bank_003:
MSHR contents

In Dram Latency Queue (total = 0): 
DRAM[1]: 16 bks, busW=4 BL=8 CL=16, tRRD=8 tCCD=2, tRCD=16 tRAS=37 tRP=16 tRC=52
n_cmd=32313 n_nop=30359 n_act=36 n_pre=20 n_ref_event=0 n_req=1898 n_rd=1898 n_rd_L2_A=0 n_write=0 n_wr_bk=0 bw_util=0.1175
n_activity=9881 dram_eff=0.3842
bk0: 146a 31936i bk1: 156a 31928i bk2: 100a 32031i bk3: 156a 31938i bk4: 160a 31920i bk5: 116a 31989i bk6: 80a 32098i bk7: 100a 32064i bk8: 96a 32100i bk9: 112a 32048i bk10: 104a 32046i bk11: 88a 32095i bk12: 108a 32080i bk13: 116a 32051i bk14: 152a 31964i bk15: 108a 32068i 

------------------------------------------------------------------------

Row_Buffer_Locality = 0.989463
Row_Buffer_Locality_read = 0.989463
Row_Buffer_Locality_write = -nan
Bank_Level_Parallism = 1.209000
Bank_Level_Parallism_Col = 1.004530
Bank_Level_Parallism_Ready = 1.043684
write_to_read_ratio_blp_rw_average = 0.000000
GrpLevelPara = 0.000000 

BW Util details:
bwutil = 0.117476 
total_CMD = 32313 
util_bw = 3796 
Wasted_Col = 2076 
Wasted_Row = 170 
Idle = 26271 

BW Util Bottlenecks: 
RCDc_limit = 433 
RCDWRc_limit = 0 
WTRc_limit = 0 
RTWc_limit = 0 
CCDLc_limit = 1730 
rwq = 0 
CCDLc_limit_alone = 1730 
WTRc_limit_alone = 0 
RTWc_limit_alone = 0 

Commands details: 
total_CMD = 32313 
n_nop = 30359 
Read = 1898 
Write = 0 
L2_Alloc = 0 
L2_WB = 0 
n_act = 36 
n_pre = 20 
n_ref = 0 
n_req = 1898 
total_req = 1898 

Dual Bus Interface Util: 
issued_total_row = 56 
issued_total_col = 1898 
Row_Bus_Util =  0.001733 
CoL_Bus_Util = 0.058738 
Either_Row_CoL_Bus_Util = 0.060471 
Issued_on_Two_Bus_Simul_Util = 0.000000 
issued_two_Eff = 0.000000 
queue_avg = 0.224615 


dram_util_bins: 0 0 0 0 0 0 0 0 0 0
dram_eff_bins: 0 0 0 0 0 0 0 0 0 0
mrqq: max=13 avg=0.224615
Memory Partition 2: 
Cache L2_bank_004:
MSHR contents

Cache L2_bank_005:
MSHR contents

In Dram Latency Queue (total = 0): 
DRAM[2]: 16 bks, busW=4 BL=8 CL=16, tRRD=8 tCCD=2, tRCD=16 tRAS=37 tRP=16 tRC=52
n_cmd=32313 n_nop=30437 n_act=36 n_pre=20 n_ref_event=0 n_req=1820 n_rd=1820 n_rd_L2_A=0 n_write=0 n_wr_bk=0 bw_util=0.1126
n_activity=9378 dram_eff=0.3881
bk0: 184a 31823i bk1: 124a 31982i bk2: 96a 32043i bk3: 108a 32001i bk4: 100a 32080i bk5: 140a 31925i bk6: 112a 32029i bk7: 132a 32006i bk8: 104a 32072i bk9: 76a 32133i bk10: 116a 32049i bk11: 108a 32080i bk12: 108a 32052i bk13: 48a 32172i bk14: 148a 31959i bk15: 116a 32082i 

------------------------------------------------------------------------

Row_Buffer_Locality = 0.989011
Row_Buffer_Locality_read = 0.989011
Row_Buffer_Locality_write = -nan
Bank_Level_Parallism = 1.187335
Bank_Level_Parallism_Col = 1.175248
Bank_Level_Parallism_Ready = 1.035714
write_to_read_ratio_blp_rw_average = 0.000000
GrpLevelPara = 1.175248 

BW Util details:
bwutil = 0.112648 
total_CMD = 32313 
util_bw = 3640 
Wasted_Col = 2070 
Wasted_Row = 224 
Idle = 26379 

BW Util Bottlenecks: 
RCDc_limit = 487 
RCDWRc_limit = 0 
WTRc_limit = 0 
RTWc_limit = 0 
CCDLc_limit = 1659 
rwq = 0 
CCDLc_limit_alone = 1659 
WTRc_limit_alone = 0 
RTWc_limit_alone = 0 

Commands details: 
total_CMD = 32313 
n_nop = 30437 
Read = 1820 
Write = 0 
L2_Alloc = 0 
L2_WB = 0 
n_act = 36 
n_pre = 20 
n_ref = 0 
n_req = 1820 
total_req = 1820 

Dual Bus Interface Util: 
issued_total_row = 56 
issued_total_col = 1820 
Row_Bus_Util =  0.001733 
CoL_Bus_Util = 0.056324 
Either_Row_CoL_Bus_Util = 0.058057 
Issued_on_Two_Bus_Simul_Util = 0.000000 
issued_two_Eff = 0.000000 
queue_avg = 0.257574 


dram_util_bins: 0 0 0 0 0 0 0 0 0 0
dram_eff_bins: 0 0 0 0 0 0 0 0 0 0
mrqq: max=14 avg=0.257574
Memory Partition 3: 
Cache L2_bank_006:
MSHR contents

Cache L2_bank_007:
MSHR contents

In Dram Latency Queue (total = 0): 
DRAM[3]: 16 bks, busW=4 BL=8 CL=16, tRRD=8 tCCD=2, tRCD=16 tRAS=37 tRP=16 tRC=52
n_cmd=32313 n_nop=30278 n_act=36 n_pre=20 n_ref_event=0 n_req=1980 n_rd=1980 n_rd_L2_A=0 n_write=0 n_wr_bk=0 bw_util=0.1226
n_activity=10080 dram_eff=0.3929
bk0: 164a 31918i bk1: 116a 32004i bk2: 132a 31991i bk3: 140a 31892i bk4: 108a 32059i bk5: 96a 32036i bk6: 92a 32073i bk7: 136a 31990i bk8: 116a 32025i bk9: 148a 31959i bk10: 92a 32069i bk11: 144a 31969i bk12: 116a 32017i bk13: 108a 32063i bk14: 128a 32036i bk15: 144a 31976i 

------------------------------------------------------------------------

Row_Buffer_Locality = 0.989899
Row_Buffer_Locality_read = 0.989899
Row_Buffer_Locality_write = -nan
Bank_Level_Parallism = 1.179928
Bank_Level_Parallism_Col = 0.984813
Bank_Level_Parallism_Ready = 1.033316
write_to_read_ratio_blp_rw_average = 0.000000
GrpLevelPara = 0.000000 

BW Util details:
bwutil = 0.122551 
total_CMD = 32313 
util_bw = 3960 
Wasted_Col = 2288 
Wasted_Row = 204 
Idle = 25861 

BW Util Bottlenecks: 
RCDc_limit = 472 
RCDWRc_limit = 0 
WTRc_limit = 0 
RTWc_limit = 0 
CCDLc_limit = 1888 
rwq = 0 
CCDLc_limit_alone = 1888 
WTRc_limit_alone = 0 
RTWc_limit_alone = 0 

Commands details: 
total_CMD = 32313 
n_nop = 30278 
Read = 1980 
Write = 0 
L2_Alloc = 0 
L2_WB = 0 
n_act = 36 
n_pre = 20 
n_ref = 0 
n_req = 1980 
total_req = 1980 

Dual Bus Interface Util: 
issued_total_row = 56 
issued_total_col = 1980 
Row_Bus_Util =  0.001733 
CoL_Bus_Util = 0.061276 
Either_Row_CoL_Bus_Util = 0.062978 
Issued_on_Two_Bus_Simul_Util = 0.000031 
issued_two_Eff = 0.000491 
queue_avg = 0.280135 


dram_util_bins: 0 0 0 0 0 0 0 0 0 0
dram_eff_bins: 0 0 0 0 0 0 0 0 0 0
mrqq: max=13 avg=0.280135
Memory Partition 4: 
Cache L2_bank_008:
MSHR contents

Cache L2_bank_009:
MSHR contents

In Dram Latency Queue (total = 0): 
DRAM[4]: 16 bks, busW=4 BL=8 CL=16, tRRD=8 tCCD=2, tRCD=16 tRAS=37 tRP=16 tRC=52
n_cmd=32313 n_nop=30109 n_act=36 n_pre=20 n_ref_event=0 n_req=2148 n_rd=2148 n_rd_L2_A=0 n_write=0 n_wr_bk=0 bw_util=0.1329
n_activity=9917 dram_eff=0.4332
bk0: 200a 31760i bk1: 196a 31802i bk2: 108a 32029i bk3: 152a 31939i bk4: 120a 32049i bk5: 116a 32018i bk6: 112a 32044i bk7: 92a 32093i bk8: 124a 32016i bk9: 132a 31989i bk10: 132a 32037i bk11: 152a 31925i bk12: 128a 32035i bk13: 148a 31942i bk14: 132a 32028i bk15: 104a 32053i 

------------------------------------------------------------------------

Row_Buffer_Locality = 0.990689
Row_Buffer_Locality_read = 0.990689
Row_Buffer_Locality_write = -nan
Bank_Level_Parallism = 1.251319
Bank_Level_Parallism_Col = 1.226050
Bank_Level_Parallism_Ready = 1.041415
write_to_read_ratio_blp_rw_average = 0.000000
GrpLevelPara = 1.226050 

BW Util details:
bwutil = 0.132950 
total_CMD = 32313 
util_bw = 4296 
Wasted_Col = 2071 
Wasted_Row = 157 
Idle = 25789 

BW Util Bottlenecks: 
RCDc_limit = 398 
RCDWRc_limit = 0 
WTRc_limit = 0 
RTWc_limit = 0 
CCDLc_limit = 1773 
rwq = 0 
CCDLc_limit_alone = 1773 
WTRc_limit_alone = 0 
RTWc_limit_alone = 0 

Commands details: 
total_CMD = 32313 
n_nop = 30109 
Read = 2148 
Write = 0 
L2_Alloc = 0 
L2_WB = 0 
n_act = 36 
n_pre = 20 
n_ref = 0 
n_req = 2148 
total_req = 2148 

Dual Bus Interface Util: 
issued_total_row = 56 
issued_total_col = 2148 
Row_Bus_Util =  0.001733 
CoL_Bus_Util = 0.066475 
Either_Row_CoL_Bus_Util = 0.068208 
Issued_on_Two_Bus_Simul_Util = 0.000000 
issued_two_Eff = 0.000000 
queue_avg = 0.495157 


dram_util_bins: 0 0 0 0 0 0 0 0 0 0
dram_eff_bins: 0 0 0 0 0 0 0 0 0 0
mrqq: max=42 avg=0.495157
Memory Partition 5: 
Cache L2_bank_010:
MSHR contents

Cache L2_bank_011:
MSHR contents

In Dram Latency Queue (total = 0): 
DRAM[5]: 16 bks, busW=4 BL=8 CL=16, tRRD=8 tCCD=2, tRCD=16 tRAS=37 tRP=16 tRC=52
n_cmd=32313 n_nop=30425 n_act=36 n_pre=20 n_ref_event=0 n_req=1832 n_rd=1832 n_rd_L2_A=0 n_write=0 n_wr_bk=0 bw_util=0.1134
n_activity=9574 dram_eff=0.3827
bk0: 148a 31911i bk1: 92a 32061i bk2: 120a 32066i bk3: 128a 31985i bk4: 124a 32040i bk5: 104a 32026i bk6: 120a 31987i bk7: 132a 31979i bk8: 96a 32106i bk9: 100a 32066i bk10: 108a 32056i bk11: 88a 32075i bk12: 116a 32076i bk13: 148a 31977i bk14: 84a 32113i bk15: 124a 32025i 

------------------------------------------------------------------------

Row_Buffer_Locality = 0.989083
Row_Buffer_Locality_read = 0.989083
Row_Buffer_Locality_write = -nan
Bank_Level_Parallism = 1.152768
Bank_Level_Parallism_Col = 1.148380
Bank_Level_Parallism_Ready = 1.029476
write_to_read_ratio_blp_rw_average = 0.000000
GrpLevelPara = 1.148380 

BW Util details:
bwutil = 0.113391 
total_CMD = 32313 
util_bw = 3664 
Wasted_Col = 2139 
Wasted_Row = 256 
Idle = 26254 

BW Util Bottlenecks: 
RCDc_limit = 488 
RCDWRc_limit = 0 
WTRc_limit = 0 
RTWc_limit = 0 
CCDLc_limit = 1703 
rwq = 0 
CCDLc_limit_alone = 1703 
WTRc_limit_alone = 0 
RTWc_limit_alone = 0 

Commands details: 
total_CMD = 32313 
n_nop = 30425 
Read = 1832 
Write = 0 
L2_Alloc = 0 
L2_WB = 0 
n_act = 36 
n_pre = 20 
n_ref = 0 
n_req = 1832 
total_req = 1832 

Dual Bus Interface Util: 
issued_total_row = 56 
issued_total_col = 1832 
Row_Bus_Util =  0.001733 
CoL_Bus_Util = 0.056695 
Either_Row_CoL_Bus_Util = 0.058428 
Issued_on_Two_Bus_Simul_Util = 0.000000 
issued_two_Eff = 0.000000 
queue_avg = 0.255625 


dram_util_bins: 0 0 0 0 0 0 0 0 0 0
dram_eff_bins: 0 0 0 0 0 0 0 0 0 0
mrqq: max=12 avg=0.255625
Memory Partition 6: 
Cache L2_bank_012:
MSHR contents

Cache L2_bank_013:
MSHR contents

In Dram Latency Queue (total = 0): 
DRAM[6]: 16 bks, busW=4 BL=8 CL=16, tRRD=8 tCCD=2, tRCD=16 tRAS=37 tRP=16 tRC=52
n_cmd=32313 n_nop=30497 n_act=36 n_pre=20 n_ref_event=0 n_req=1760 n_rd=1760 n_rd_L2_A=0 n_write=0 n_wr_bk=0 bw_util=0.1089
n_activity=9187 dram_eff=0.3832
bk0: 136a 31929i bk1: 120a 32032i bk2: 116a 31967i bk3: 132a 31988i bk4: 100a 32044i bk5: 128a 31999i bk6: 100a 32049i bk7: 132a 32000i bk8: 84a 32065i bk9: 92a 32055i bk10: 100a 32089i bk11: 100a 32056i bk12: 84a 32112i bk13: 108a 32101i bk14: 96a 32085i bk15: 132a 32017i 

------------------------------------------------------------------------

Row_Buffer_Locality = 0.988636
Row_Buffer_Locality_read = 0.988636
Row_Buffer_Locality_write = -nan
Bank_Level_Parallism = 1.207800
Bank_Level_Parallism_Col = 1.193829
Bank_Level_Parallism_Ready = 1.052273
write_to_read_ratio_blp_rw_average = 0.000000
GrpLevelPara = 1.193829 

BW Util details:
bwutil = 0.108934 
total_CMD = 32313 
util_bw = 3520 
Wasted_Col = 1966 
Wasted_Row = 221 
Idle = 26606 

BW Util Bottlenecks: 
RCDc_limit = 419 
RCDWRc_limit = 0 
WTRc_limit = 0 
RTWc_limit = 0 
CCDLc_limit = 1655 
rwq = 0 
CCDLc_limit_alone = 1655 
WTRc_limit_alone = 0 
RTWc_limit_alone = 0 

Commands details: 
total_CMD = 32313 
n_nop = 30497 
Read = 1760 
Write = 0 
L2_Alloc = 0 
L2_WB = 0 
n_act = 36 
n_pre = 20 
n_ref = 0 
n_req = 1760 
total_req = 1760 

Dual Bus Interface Util: 
issued_total_row = 56 
issued_total_col = 1760 
Row_Bus_Util =  0.001733 
CoL_Bus_Util = 0.054467 
Either_Row_CoL_Bus_Util = 0.056200 
Issued_on_Two_Bus_Simul_Util = 0.000000 
issued_two_Eff = 0.000000 
queue_avg = 0.280723 


dram_util_bins: 0 0 0 0 0 0 0 0 0 0
dram_eff_bins: 0 0 0 0 0 0 0 0 0 0
mrqq: max=16 avg=0.280723
Memory Partition 7: 
Cache L2_bank_014:
MSHR contents

Cache L2_bank_015:
MSHR contents

In Dram Latency Queue (total = 0): 
DRAM[7]: 16 bks, busW=4 BL=8 CL=16, tRRD=8 tCCD=2, tRCD=16 tRAS=37 tRP=16 tRC=52
n_cmd=32313 n_nop=30373 n_act=36 n_pre=20 n_ref_event=0 n_req=1884 n_rd=1884 n_rd_L2_A=0 n_write=0 n_wr_bk=0 bw_util=0.1166
n_activity=9443 dram_eff=0.399
bk0: 152a 31917i bk1: 164a 31904i bk2: 128a 31982i bk3: 88a 32058i bk4: 124a 31990i bk5: 100a 32065i bk6: 116a 32021i bk7: 124a 31916i bk8: 84a 32095i bk9: 92a 32100i bk10: 136a 31975i bk11: 96a 32069i bk12: 96a 32097i bk13: 120a 32020i bk14: 120a 32028i bk15: 144a 31959i 

------------------------------------------------------------------------

Row_Buffer_Locality = 0.989384
Row_Buffer_Locality_read = 0.989384
Row_Buffer_Locality_write = -nan
Bank_Level_Parallism = 1.222345
Bank_Level_Parallism_Col = 1.207765
Bank_Level_Parallism_Ready = 1.063164
write_to_read_ratio_blp_rw_average = 0.000000
GrpLevelPara = 1.207765 

BW Util details:
bwutil = 0.116609 
total_CMD = 32313 
util_bw = 3768 
Wasted_Col = 2071 
Wasted_Row = 202 
Idle = 26272 

BW Util Bottlenecks: 
RCDc_limit = 467 
RCDWRc_limit = 0 
WTRc_limit = 0 
RTWc_limit = 0 
CCDLc_limit = 1674 
rwq = 0 
CCDLc_limit_alone = 1674 
WTRc_limit_alone = 0 
RTWc_limit_alone = 0 

Commands details: 
total_CMD = 32313 
n_nop = 30373 
Read = 1884 
Write = 0 
L2_Alloc = 0 
L2_WB = 0 
n_act = 36 
n_pre = 20 
n_ref = 0 
n_req = 1884 
total_req = 1884 

Dual Bus Interface Util: 
issued_total_row = 56 
issued_total_col = 1884 
Row_Bus_Util =  0.001733 
CoL_Bus_Util = 0.058305 
Either_Row_CoL_Bus_Util = 0.060038 
Issued_on_Two_Bus_Simul_Util = 0.000000 
issued_two_Eff = 0.000000 
queue_avg = 0.274286 


dram_util_bins: 0 0 0 0 0 0 0 0 0 0
dram_eff_bins: 0 0 0 0 0 0 0 0 0 0
mrqq: max=15 avg=0.274286
Memory Partition 8: 
Cache L2_bank_016:
MSHR contents

Cache L2_bank_017:
MSHR contents

In Dram Latency Queue (total = 0): 
DRAM[8]: 16 bks, busW=4 BL=8 CL=16, tRRD=8 tCCD=2, tRCD=16 tRAS=37 tRP=16 tRC=52
n_cmd=32313 n_nop=30265 n_act=36 n_pre=20 n_ref_event=0 n_req=1992 n_rd=1992 n_rd_L2_A=0 n_write=0 n_wr_bk=0 bw_util=0.1233
n_activity=9400 dram_eff=0.4238
bk0: 140a 31987i bk1: 192a 31842i bk2: 132a 31944i bk3: 104a 32010i bk4: 120a 32046i bk5: 124a 31934i bk6: 116a 32017i bk7: 148a 31911i bk8: 140a 31975i bk9: 120a 32027i bk10: 96a 32083i bk11: 76a 32113i bk12: 140a 32016i bk13: 124a 32039i bk14: 120a 32048i bk15: 100a 32060i 

------------------------------------------------------------------------

Row_Buffer_Locality = 0.989960
Row_Buffer_Locality_read = 0.989960
Row_Buffer_Locality_write = -nan
Bank_Level_Parallism = 1.292829
Bank_Level_Parallism_Col = 1.275229
Bank_Level_Parallism_Ready = 1.062187
write_to_read_ratio_blp_rw_average = 0.000000
GrpLevelPara = 1.275229 

BW Util details:
bwutil = 0.123294 
total_CMD = 32313 
util_bw = 3984 
Wasted_Col = 1832 
Wasted_Row = 182 
Idle = 26315 

BW Util Bottlenecks: 
RCDc_limit = 405 
RCDWRc_limit = 0 
WTRc_limit = 0 
RTWc_limit = 0 
CCDLc_limit = 1531 
rwq = 0 
CCDLc_limit_alone = 1531 
WTRc_limit_alone = 0 
RTWc_limit_alone = 0 

Commands details: 
total_CMD = 32313 
n_nop = 30265 
Read = 1992 
Write = 0 
L2_Alloc = 0 
L2_WB = 0 
n_act = 36 
n_pre = 20 
n_ref = 0 
n_req = 1992 
total_req = 1992 

Dual Bus Interface Util: 
issued_total_row = 56 
issued_total_col = 1992 
Row_Bus_Util =  0.001733 
CoL_Bus_Util = 0.061647 
Either_Row_CoL_Bus_Util = 0.063380 
Issued_on_Two_Bus_Simul_Util = 0.000000 
issued_two_Eff = 0.000000 
queue_avg = 0.340111 


dram_util_bins: 0 0 0 0 0 0 0 0 0 0
dram_eff_bins: 0 0 0 0 0 0 0 0 0 0
mrqq: max=22 avg=0.340111
Memory Partition 9: 
Cache L2_bank_018:
MSHR contents

Cache L2_bank_019:
MSHR contents

In Dram Latency Queue (total = 0): 
DRAM[9]: 16 bks, busW=4 BL=8 CL=16, tRRD=8 tCCD=2, tRCD=16 tRAS=37 tRP=16 tRC=52
n_cmd=32313 n_nop=30385 n_act=36 n_pre=20 n_ref_event=0 n_req=1872 n_rd=1872 n_rd_L2_A=0 n_write=0 n_wr_bk=0 bw_util=0.1159
n_activity=9485 dram_eff=0.3947
bk0: 124a 32009i bk1: 144a 31971i bk2: 152a 31955i bk3: 120a 31996i bk4: 128a 32008i bk5: 124a 32053i bk6: 172a 31884i bk7: 84a 32121i bk8: 96a 32094i bk9: 72a 32127i bk10: 96a 32069i bk11: 124a 32011i bk12: 128a 32008i bk13: 116a 32023i bk14: 108a 32062i bk15: 84a 32116i 

------------------------------------------------------------------------

Row_Buffer_Locality = 0.989316
Row_Buffer_Locality_read = 0.989316
Row_Buffer_Locality_write = -nan
Bank_Level_Parallism = 1.171571
Bank_Level_Parallism_Col = 1.157997
Bank_Level_Parallism_Ready = 1.027229
write_to_read_ratio_blp_rw_average = 0.000000
GrpLevelPara = 1.157997 

BW Util details:
bwutil = 0.115867 
total_CMD = 32313 
util_bw = 3744 
Wasted_Col = 2101 
Wasted_Row = 213 
Idle = 26255 

BW Util Bottlenecks: 
RCDc_limit = 490 
RCDWRc_limit = 0 
WTRc_limit = 0 
RTWc_limit = 0 
CCDLc_limit = 1668 
rwq = 0 
CCDLc_limit_alone = 1668 
WTRc_limit_alone = 0 
RTWc_limit_alone = 0 

Commands details: 
total_CMD = 32313 
n_nop = 30385 
Read = 1872 
Write = 0 
L2_Alloc = 0 
L2_WB = 0 
n_act = 36 
n_pre = 20 
n_ref = 0 
n_req = 1872 
total_req = 1872 

Dual Bus Interface Util: 
issued_total_row = 56 
issued_total_col = 1872 
Row_Bus_Util =  0.001733 
CoL_Bus_Util = 0.057933 
Either_Row_CoL_Bus_Util = 0.059666 
Issued_on_Two_Bus_Simul_Util = 0.000000 
issued_two_Eff = 0.000000 
queue_avg = 0.214743 


dram_util_bins: 0 0 0 0 0 0 0 0 0 0
dram_eff_bins: 0 0 0 0 0 0 0 0 0 0
mrqq: max=13 avg=0.214743
Memory Partition 10: 
Cache L2_bank_020:
MSHR contents

Cache L2_bank_021:
MSHR contents

In Dram Latency Queue (total = 0): 
DRAM[10]: 16 bks, busW=4 BL=8 CL=16, tRRD=8 tCCD=2, tRCD=16 tRAS=37 tRP=16 tRC=52
n_cmd=32313 n_nop=30269 n_act=36 n_pre=20 n_ref_event=0 n_req=1988 n_rd=1988 n_rd_L2_A=0 n_write=0 n_wr_bk=0 bw_util=0.123
n_activity=9664 dram_eff=0.4114
bk0: 160a 31872i bk1: 160a 31887i bk2: 148a 31960i bk3: 140a 31986i bk4: 112a 32027i bk5: 80a 32137i bk6: 112a 32073i bk7: 100a 32082i bk8: 112a 32075i bk9: 120a 32029i bk10: 100a 32095i bk11: 104a 32065i bk12: 116a 32030i bk13: 128a 32027i bk14: 156a 31962i bk15: 140a 31976i 

------------------------------------------------------------------------

Row_Buffer_Locality = 0.989940
Row_Buffer_Locality_read = 0.989940
Row_Buffer_Locality_write = -nan
Bank_Level_Parallism = 1.248409
Bank_Level_Parallism_Col = 1.220047
Bank_Level_Parallism_Ready = 1.044221
write_to_read_ratio_blp_rw_average = 0.000000
GrpLevelPara = 1.220047 

BW Util details:
bwutil = 0.123046 
total_CMD = 32313 
util_bw = 3976 
Wasted_Col = 1902 
Wasted_Row = 154 
Idle = 26281 

BW Util Bottlenecks: 
RCDc_limit = 443 
RCDWRc_limit = 0 
WTRc_limit = 0 
RTWc_limit = 0 
CCDLc_limit = 1593 
rwq = 0 
CCDLc_limit_alone = 1593 
WTRc_limit_alone = 0 
RTWc_limit_alone = 0 

Commands details: 
total_CMD = 32313 
n_nop = 30269 
Read = 1988 
Write = 0 
L2_Alloc = 0 
L2_WB = 0 
n_act = 36 
n_pre = 20 
n_ref = 0 
n_req = 1988 
total_req = 1988 

Dual Bus Interface Util: 
issued_total_row = 56 
issued_total_col = 1988 
Row_Bus_Util =  0.001733 
CoL_Bus_Util = 0.061523 
Either_Row_CoL_Bus_Util = 0.063256 
Issued_on_Two_Bus_Simul_Util = 0.000000 
issued_two_Eff = 0.000000 
queue_avg = 0.331569 


dram_util_bins: 0 0 0 0 0 0 0 0 0 0
dram_eff_bins: 0 0 0 0 0 0 0 0 0 0
mrqq: max=22 avg=0.331569
Memory Partition 11: 
Cache L2_bank_022:
MSHR contents

Cache L2_bank_023:
MSHR contents

In Dram Latency Queue (total = 0): 
DRAM[11]: 16 bks, busW=4 BL=8 CL=16, tRRD=8 tCCD=2, tRCD=16 tRAS=37 tRP=16 tRC=52
n_cmd=32313 n_nop=30521 n_act=36 n_pre=20 n_ref_event=0 n_req=1736 n_rd=1736 n_rd_L2_A=0 n_write=0 n_wr_bk=0 bw_util=0.1074
n_activity=8955 dram_eff=0.3877
bk0: 128a 31991i bk1: 124a 31980i bk2: 128a 32000i bk3: 120a 32050i bk4: 96a 32035i bk5: 128a 31928i bk6: 92a 32113i bk7: 92a 32109i bk8: 96a 32080i bk9: 108a 32067i bk10: 104a 32072i bk11: 100a 32084i bk12: 132a 32029i bk13: 104a 32084i bk14: 88a 32086i bk15: 96a 32077i 

------------------------------------------------------------------------

Row_Buffer_Locality = 0.988479
Row_Buffer_Locality_read = 0.988479
[...]
queue_avg = 0.267141 


dram_util_bins: 0 0 0 0 0 0 0 0 0 0
dram_eff_bins: 0 0 0 0 0 0 0 0 0 0
mrqq: max=25 avg=0.267141
Memory Partition 6: 
Cache L2_bank_012:
MSHR contents

Cache L2_bank_013:
MSHR contents

In Dram Latency Queue (total = 0): 
DRAM[6]: 16 bks, busW=4 BL=8 CL=16, tRRD=8 tCCD=2, tRCD=16 tRAS=37 tRP=16 tRC=52
n_cmd=159762 n_nop=150783 n_act=172 n_pre=156 n_ref_event=0 n_req=8651 n_rd=8651 n_rd_L2_A=0 n_write=0 n_wr_bk=0 bw_util=0.1083
n_activity=46029 dram_eff=0.3759
bk0: 579a 158236i bk1: 506a 158536i bk2: 533a 158328i bk3: 533a 158384i bk4: 616a 158257i bk5: 584a 158225i bk6: 552a 158282i bk7: 496a 158470i bk8: 504a 158360i bk9: 604a 158106i bk10: 464a 158604i bk11: 484a 158447i bk12: 580a 158336i bk13: 496a 158635i bk14: 540a 158494i bk15: 580a 158293i 

------------------------------------------------------------------------

Row_Buffer_Locality = 0.981967
Row_Buffer_Locality_read = 0.981967
Row_Buffer_Locality_write = -nan
Bank_Level_Parallism = 1.193229
Bank_Level_Parallism_Col = 1.170169
Bank_Level_Parallism_Ready = 1.036635
write_to_read_ratio_blp_rw_average = 0.000000
GrpLevelPara = 1.170169 

BW Util details:
bwutil = 0.108299 
total_CMD = 159762 
util_bw = 17302 
Wasted_Col = 9764 
Wasted_Row = 1654 
Idle = 131042 

BW Util Bottlenecks: 
RCDc_limit = 2194 
RCDWRc_limit = 0 
WTRc_limit = 0 
RTWc_limit = 0 
CCDLc_limit = 7965 
rwq = 0 
CCDLc_limit_alone = 7965 
WTRc_limit_alone = 0 
RTWc_limit_alone = 0 

Commands details: 
total_CMD = 159762 
n_nop = 150783 
Read = 8651 
Write = 0 
L2_Alloc = 0 
L2_WB = 0 
n_act = 172 
n_pre = 156 
n_ref = 0 
n_req = 8651 
total_req = 8651 

Dual Bus Interface Util: 
issued_total_row = 328 
issued_total_col = 8651 
Row_Bus_Util =  0.002053 
CoL_Bus_Util = 0.054149 
Either_Row_CoL_Bus_Util = 0.056202 
Issued_on_Two_Bus_Simul_Util = 0.000000 
issued_two_Eff = 0.000000 
queue_avg = 0.267830 


dram_util_bins: 0 0 0 0 0 0 0 0 0 0
dram_eff_bins: 0 0 0 0 0 0 0 0 0 0
mrqq: max=24 avg=0.26783
Memory Partition 7: 
Cache L2_bank_014:
MSHR contents

Cache L2_bank_015:
MSHR contents

In Dram Latency Queue (total = 0): 
DRAM[7]: 16 bks, busW=4 BL=8 CL=16, tRRD=8 tCCD=2, tRCD=16 tRAS=37 tRP=16 tRC=52
n_cmd=159762 n_nop=150020 n_act=171 n_pre=155 n_ref_event=0 n_req=9416 n_rd=9416 n_rd_L2_A=0 n_write=0 n_wr_bk=0 bw_util=0.1179
n_activity=48496 dram_eff=0.3883
bk0: 660a 158111i bk1: 585a 158239i bk2: 584a 158285i bk3: 543a 158396i bk4: 604a 158274i bk5: 572a 158262i bk6: 572a 158255i bk7: 576a 158057i bk8: 508a 158466i bk9: 584a 158246i bk10: 580a 158364i bk11: 588a 158275i bk12: 564a 158411i bk13: 652a 158018i bk14: 688a 158028i bk15: 556a 158229i 

------------------------------------------------------------------------

Row_Buffer_Locality = 0.983539
Row_Buffer_Locality_read = 0.983539
Row_Buffer_Locality_write = -nan
Bank_Level_Parallism = 1.201968
Bank_Level_Parallism_Col = 1.182059
Bank_Level_Parallism_Ready = 1.048610
write_to_read_ratio_blp_rw_average = 0.000000
GrpLevelPara = 1.182059 

BW Util details:
bwutil = 0.117875 
total_CMD = 159762 
util_bw = 18832 
Wasted_Col = 10460 
Wasted_Row = 1612 
Idle = 128858 

BW Util Bottlenecks: 
RCDc_limit = 2310 
RCDWRc_limit = 0 
WTRc_limit = 0 
RTWc_limit = 0 
CCDLc_limit = 8452 
rwq = 0 
CCDLc_limit_alone = 8452 
WTRc_limit_alone = 0 
RTWc_limit_alone = 0 

Commands details: 
total_CMD = 159762 
n_nop = 150020 
Read = 9416 
Write = 0 
L2_Alloc = 0 
L2_WB = 0 
n_act = 171 
n_pre = 155 
n_ref = 0 
n_req = 9416 
total_req = 9416 

Dual Bus Interface Util: 
issued_total_row = 326 
issued_total_col = 9416 
Row_Bus_Util =  0.002041 
CoL_Bus_Util = 0.058938 
Either_Row_CoL_Bus_Util = 0.060978 
Issued_on_Two_Bus_Simul_Util = 0.000000 
issued_two_Eff = 0.000000 
queue_avg = 0.286182 


dram_util_bins: 0 0 0 0 0 0 0 0 0 0
dram_eff_bins: 0 0 0 0 0 0 0 0 0 0
mrqq: max=20 avg=0.286182
Memory Partition 8: 
Cache L2_bank_016:
MSHR contents

Cache L2_bank_017:
MSHR contents

In Dram Latency Queue (total = 0): 
DRAM[8]: 16 bks, busW=4 BL=8 CL=16, tRRD=8 tCCD=2, tRCD=16 tRAS=37 tRP=16 tRC=52
n_cmd=159762 n_nop=150087 n_act=172 n_pre=156 n_ref_event=0 n_req=9347 n_rd=9347 n_rd_L2_A=0 n_write=0 n_wr_bk=0 bw_util=0.117
n_activity=47776 dram_eff=0.3913
bk0: 577a 158297i bk1: 657a 158084i bk2: 626a 158168i bk3: 567a 158300i bk4: 632a 158164i bk5: 520a 158260i bk6: 568a 158222i bk7: 624a 158098i bk8: 592a 158338i bk9: 552a 158268i bk10: 580a 158257i bk11: 472a 158555i bk12: 572a 158308i bk13: 584a 158309i bk14: 676a 158175i bk15: 548a 158389i 

------------------------------------------------------------------------

Row_Buffer_Locality = 0.983310
Row_Buffer_Locality_read = 0.983310
Row_Buffer_Locality_write = -nan
Bank_Level_Parallism = 1.207851
Bank_Level_Parallism_Col = 1.189263
Bank_Level_Parallism_Ready = 1.045017
write_to_read_ratio_blp_rw_average = 0.000000
GrpLevelPara = 1.189263 

BW Util details:
bwutil = 0.117012 
total_CMD = 159762 
util_bw = 18694 
Wasted_Col = 10205 
Wasted_Row = 1655 
Idle = 129208 

BW Util Bottlenecks: 
RCDc_limit = 2212 
RCDWRc_limit = 0 
WTRc_limit = 0 
RTWc_limit = 0 
CCDLc_limit = 8327 
rwq = 0 
CCDLc_limit_alone = 8327 
WTRc_limit_alone = 0 
RTWc_limit_alone = 0 

Commands details: 
total_CMD = 159762 
n_nop = 150087 
Read = 9347 
Write = 0 
L2_Alloc = 0 
L2_WB = 0 
n_act = 172 
n_pre = 156 
n_ref = 0 
n_req = 9347 
total_req = 9347 

Dual Bus Interface Util: 
issued_total_row = 328 
issued_total_col = 9347 
Row_Bus_Util =  0.002053 
CoL_Bus_Util = 0.058506 
Either_Row_CoL_Bus_Util = 0.060559 
Issued_on_Two_Bus_Simul_Util = 0.000000 
issued_two_Eff = 0.000000 
queue_avg = 0.273450 


dram_util_bins: 0 0 0 0 0 0 0 0 0 0
dram_eff_bins: 0 0 0 0 0 0 0 0 0 0
mrqq: max=24 avg=0.27345
Memory Partition 9: 
Cache L2_bank_018:
MSHR contents

Cache L2_bank_019:
MSHR contents

In Dram Latency Queue (total = 0): 
DRAM[9]: 16 bks, busW=4 BL=8 CL=16, tRRD=8 tCCD=2, tRCD=16 tRAS=37 tRP=16 tRC=52
n_cmd=159762 n_nop=150296 n_act=171 n_pre=155 n_ref_event=0 n_req=9141 n_rd=9141 n_rd_L2_A=0 n_write=0 n_wr_bk=0 bw_util=0.1144
n_activity=47453 dram_eff=0.3853
bk0: 544a 158332i bk1: 601a 158270i bk2: 560a 158398i bk3: 600a 158237i bk4: 624a 158230i bk5: 604a 158294i bk6: 600a 158211i bk7: 556a 158289i bk8: 520a 158485i bk9: 504a 158427i bk10: 548a 158368i bk11: 544a 158366i bk12: 660a 158141i bk13: 600a 158242i bk14: 572a 158345i bk15: 504a 158474i 

------------------------------------------------------------------------

Row_Buffer_Locality = 0.983043
Row_Buffer_Locality_read = 0.983043
Row_Buffer_Locality_write = -nan
Bank_Level_Parallism = 1.196620
Bank_Level_Parallism_Col = 1.175781
Bank_Level_Parallism_Ready = 1.042879
write_to_read_ratio_blp_rw_average = 0.000000
GrpLevelPara = 1.175781 

BW Util details:
bwutil = 0.114433 
total_CMD = 159762 
util_bw = 18282 
Wasted_Col = 9986 
Wasted_Row = 1653 
Idle = 129841 

BW Util Bottlenecks: 
RCDc_limit = 2223 
RCDWRc_limit = 0 
WTRc_limit = 0 
RTWc_limit = 0 
CCDLc_limit = 8114 
rwq = 0 
CCDLc_limit_alone = 8114 
WTRc_limit_alone = 0 
RTWc_limit_alone = 0 

Commands details: 
total_CMD = 159762 
n_nop = 150296 
Read = 9141 
Write = 0 
L2_Alloc = 0 
L2_WB = 0 
n_act = 171 
n_pre = 155 
n_ref = 0 
n_req = 9141 
total_req = 9141 

Dual Bus Interface Util: 
issued_total_row = 326 
issued_total_col = 9141 
Row_Bus_Util =  0.002041 
CoL_Bus_Util = 0.057216 
Either_Row_CoL_Bus_Util = 0.059251 
Issued_on_Two_Bus_Simul_Util = 0.000006 
issued_two_Eff = 0.000106 
queue_avg = 0.243619 


dram_util_bins: 0 0 0 0 0 0 0 0 0 0
dram_eff_bins: 0 0 0 0 0 0 0 0 0 0
mrqq: max=16 avg=0.243619
Memory Partition 10: 
Cache L2_bank_020:
MSHR contents

Cache L2_bank_021:
MSHR contents

In Dram Latency Queue (total = 0): 
DRAM[10]: 16 bks, busW=4 BL=8 CL=16, tRRD=8 tCCD=2, tRCD=16 tRAS=37 tRP=16 tRC=52
n_cmd=159762 n_nop=150054 n_act=176 n_pre=160 n_ref_event=0 n_req=9361 n_rd=9357 n_rd_L2_A=0 n_write=0 n_wr_bk=16 bw_util=0.1173
n_activity=47470 dram_eff=0.3949
bk0: 544a 158412i bk1: 646a 158121i bk2: 551a 158244i bk3: 620a 158075i bk4: 612a 158198i bk5: 540a 158340i bk6: 576a 158263i bk7: 584a 158148i bk8: 580a 158267i bk9: 556a 158279i bk10: 608a 158252i bk11: 556a 158316i bk12: 620a 158117i bk13: 608a 158246i bk14: 580a 158386i bk15: 576a 158305i 

------------------------------------------------------------------------

Row_Buffer_Locality = 0.982908
Row_Buffer_Locality_read = 0.983221
Row_Buffer_Locality_write = 0.250000
Bank_Level_Parallism = 1.219256
Bank_Level_Parallism_Col = 1.197153
Bank_Level_Parallism_Ready = 1.048710
write_to_read_ratio_blp_rw_average = 0.004101
GrpLevelPara = 1.197153 

BW Util details:
bwutil = 0.117337 
total_CMD = 159762 
util_bw = 18746 
Wasted_Col = 10049 
Wasted_Row = 1654 
Idle = 129313 

BW Util Bottlenecks: 
RCDc_limit = 2176 
RCDWRc_limit = 20 
WTRc_limit = 19 
RTWc_limit = 54 
CCDLc_limit = 8196 
rwq = 0 
CCDLc_limit_alone = 8196 
WTRc_limit_alone = 19 
RTWc_limit_alone = 54 

Commands details: 
total_CMD = 159762 
n_nop = 150054 
Read = 9357 
Write = 0 
L2_Alloc = 0 
L2_WB = 16 
n_act = 176 
n_pre = 160 
n_ref = 0 
n_req = 9361 
total_req = 9373 

Dual Bus Interface Util: 
issued_total_row = 336 
issued_total_col = 9373 
Row_Bus_Util =  0.002103 
CoL_Bus_Util = 0.058669 
Either_Row_CoL_Bus_Util = 0.060765 
Issued_on_Two_Bus_Simul_Util = 0.000006 
issued_two_Eff = 0.000103 
queue_avg = 0.305861 


dram_util_bins: 0 0 0 0 0 0 0 0 0 0
dram_eff_bins: 0 0 0 0 0 0 0 0 0 0
mrqq: max=22 avg=0.305861
Memory Partition 11: 
Cache L2_bank_022:
MSHR contents

Cache L2_bank_023:
MSHR contents

In Dram Latency Queue (total = 0): 
DRAM[11]: 16 bks, busW=4 BL=8 CL=16, tRRD=8 tCCD=2, tRCD=16 tRAS=37 tRP=16 tRC=52
n_cmd=159762 n_nop=150827 n_act=172 n_pre=156 n_ref_event=0 n_req=8607 n_rd=8607 n_rd_L2_A=0 n_write=0 n_wr_bk=0 bw_util=0.1077
n_activity=45530 dram_eff=0.3781
bk0: 534a 158362i bk1: 612a 158249i bk2: 606a 158273i bk3: 617a 158255i bk4: 556a 158360i bk5: 602a 158067i bk6: 552a 158256i bk7: 492a 158430i bk8: 468a 158461i bk9: 524a 158496i bk10: 460a 158569i bk11: 520a 158458i bk12: 516a 158494i bk13: 556a 158385i bk14: 452a 158591i bk15: 540a 158453i 

------------------------------------------------------------------------

Row_Buffer_Locality = 0.981875
Row_Buffer_Locality_read = 0.981875
Row_Buffer_Locality_write = -nan
Bank_Level_Parallism = 1.189311
Bank_Level_Parallism_Col = 1.167095
Bank_Level_Parallism_Ready = 1.036818
write_to_read_ratio_blp_rw_average = 0.000000
GrpLevelPara = 1.167095 

BW Util details:
bwutil = 0.107748 
total_CMD = 159762 
util_bw = 17214 
Wasted_Col = 9684 
Wasted_Row = 1659 
Idle = 131205 

BW Util Bottlenecks: 
RCDc_limit = 2263 
RCDWRc_limit = 0 
WTRc_limit = 0 
RTWc_limit = 0 
CCDLc_limit = 7808 
rwq = 0 
CCDLc_limit_alone = 7808 
WTRc_limit_alone = 0 
RTWc_limit_alone = 0 

Commands details: 
total_CMD = 159762 
n_nop = 150827 
Read = 8607 
Write = 0 
L2_Alloc = 0 
L2_WB = 0 
n_act = 172 
n_pre = 156 
n_ref = 0 
n_req = 8607 
total_req = 8607 

Dual Bus Interface Util: 
issued_total_row = 328 
issued_total_col = 8607 
Row_Bus_Util =  0.002053 
CoL_Bus_Util = 0.053874 
Either_Row_CoL_Bus_Util = 0.055927 
Issued_on_Two_Bus_Simul_Util = 0.000000 
issued_two_Eff = 0.000000 
queue_avg = 0.236370 


dram_util_bins: 0 0 0 0 0 0 0 0 0 0
dram_eff_bins: 0 0 0 0 0 0 0 0 0 0
mrqq: max=24 avg=0.23637

========= L2 cache stats =========
L2_cache_bank[0]: Access = 7514, Miss = 4386, Miss_rate = 0.584, Pending_hits = 1529, Reservation_fails = 0
L2_cache_bank[1]: Access = 7527, Miss = 4258, Miss_rate = 0.566, Pending_hits = 1462, Reservation_fails = 0
L2_cache_bank[2]: Access = 7794, Miss = 4722, Miss_rate = 0.606, Pending_hits = 1600, Reservation_fails = 0
L2_cache_bank[3]: Access = 7368, Miss = 4386, Miss_rate = 0.595, Pending_hits = 1527, Reservation_fails = 0
L2_cache_bank[4]: Access = 7683, Miss = 4164, Miss_rate = 0.542, Pending_hits = 1481, Reservation_fails = 0
L2_cache_bank[5]: Access = 7754, Miss = 4638, Miss_rate = 0.598, Pending_hits = 1639, Reservation_fails = 0
L2_cache_bank[6]: Access = 7635, Miss = 4654, Miss_rate = 0.610, Pending_hits = 1591, Reservation_fails = 0
L2_cache_bank[7]: Access = 7931, Miss = 4534, Miss_rate = 0.572, Pending_hits = 1633, Reservation_fails = 0
L2_cache_bank[8]: Access = 8198, Miss = 5084, Miss_rate = 0.620, Pending_hits = 1762, Reservation_fails = 0
L2_cache_bank[9]: Access = 7832, Miss = 4634, Miss_rate = 0.592, Pending_hits = 1642, Reservation_fails = 0
L2_cache_bank[10]: Access = 7740, Miss = 4420, Miss_rate = 0.571, Pending_hits = 1570, Reservation_fails = 0
L2_cache_bank[11]: Access = 7871, Miss = 4786, Miss_rate = 0.608, Pending_hits = 1706, Reservation_fails = 0
L2_cache_bank[12]: Access = 7399, Miss = 4232, Miss_rate = 0.572, Pending_hits = 1480, Reservation_fails = 0
L2_cache_bank[13]: Access = 7555, Miss = 4554, Miss_rate = 0.603, Pending_hits = 1548, Reservation_fails = 0
L2_cache_bank[14]: Access = 7440, Miss = 4044, Miss_rate = 0.544, Pending_hits = 1461, Reservation_fails = 0
L2_cache_bank[15]: Access = 8252, Miss = 5472, Miss_rate = 0.663, Pending_hits = 1928, Reservation_fails = 0
L2_cache_bank[16]: Access = 7620, Miss = 4524, Miss_rate = 0.594, Pending_hits = 1505, Reservation_fails = 0
L2_cache_bank[17]: Access = 7938, Miss = 4954, Miss_rate = 0.624, Pending_hits = 1738, Reservation_fails = 0
L2_cache_bank[18]: Access = 7512, Miss = 4248, Miss_rate = 0.565, Pending_hits = 1481, Reservation_fails = 0
L2_cache_bank[19]: Access = 8317, Miss = 5034, Miss_rate = 0.605, Pending_hits = 1781, Reservation_fails = 0
L2_cache_bank[20]: Access = 7844, Miss = 4368, Miss_rate = 0.557, Pending_hits = 1520, Reservation_fails = 0
L2_cache_bank[21]: Access = 8122, Miss = 5146, Miss_rate = 0.634, Pending_hits = 1821, Reservation_fails = 0
L2_cache_bank[22]: Access = 7684, Miss = 4482, Miss_rate = 0.583, Pending_hits = 1562, Reservation_fails = 0
L2_cache_bank[23]: Access = 7575, Miss = 4266, Miss_rate = 0.563, Pending_hits = 1527, Reservation_fails = 0
L2_total_cache_accesses = 186105
L2_total_cache_misses = 109990
L2_total_cache_miss_rate = 0.5910
L2_total_cache_pending_hits = 38494
L2_total_cache_reservation_fails = 0
L2_total_cache_breakdown:
	L2_cache_stats_breakdown[GLOBAL_ACC_R][HIT] = 31430
	L2_cache_stats_breakdown[GLOBAL_ACC_R][HIT_RESERVED] = 38494
	L2_cache_stats_breakdown[GLOBAL_ACC_R][MISS] = 27003
	L2_cache_stats_breakdown[GLOBAL_ACC_R][RESERVATION_FAIL] = 0
	L2_cache_stats_breakdown[GLOBAL_ACC_R][SECTOR_MISS] = 81343
	L2_cache_stats_breakdown[LOCAL_ACC_R][HIT] = 0
	L2_cache_stats_breakdown[LOCAL_ACC_R][HIT_RESERVED] = 0
	L2_cache_stats_breakdown[LOCAL_ACC_R][MISS] = 0
	L2_cache_stats_breakdown[LOCAL_ACC_R][RESERVATION_FAIL] = 0
	L2_cache_stats_breakdown[LOCAL_ACC_R][SECTOR_MISS] = 0
	L2_cache_stats_breakdown[CONST_ACC_R][HIT] = 0
	L2_cache_stats_breakdown[CONST_ACC_R][HIT_RESERVED] = 0
	L2_cache_stats_breakdown[CONST_ACC_R][MISS] = 0
	L2_cache_stats_breakdown[CONST_ACC_R][RESERVATION_FAIL] = 0
	L2_cache_stats_breakdown[CONST_ACC_R][SECTOR_MISS] = 0
	L2_cache_stats_breakdown[TEXTURE_ACC_R][HIT] = 0
	L2_cache_stats_breakdown[TEXTURE_ACC_R][HIT_RESERVED] = 0
	L2_cache_stats_breakdown[TEXTURE_ACC_R][MISS] = 0
	L2_cache_stats_breakdown[TEXTURE_ACC_R][RESERVATION_FAIL] = 0
	L2_cache_stats_breakdown[TEXTURE_ACC_R][SECTOR_MISS] = 0
	L2_cache_stats_breakdown[GLOBAL_ACC_W][HIT] = 6191
	L2_cache_stats_breakdown[GLOBAL_ACC_W][HIT_RESERVED] = 0
	L2_cache_stats_breakdown[GLOBAL_ACC_W][MISS] = 327
	L2_cache_stats_breakdown[GLOBAL_ACC_W][RESERVATION_FAIL] = 0
	L2_cache_stats_breakdown[GLOBAL_ACC_W][SECTOR_MISS] = 1317
	L2_cache_stats_breakdown[LOCAL_ACC_W][HIT] = 0
	L2_cache_stats_breakdown[LOCAL_ACC_W][HIT_RESERVED] = 0
	L2_cache_stats_breakdown[LOCAL_ACC_W][MISS] = 0
	L2_cache_stats_breakdown[LOCAL_ACC_W][RESERVATION_FAIL] = 0
	L2_cache_stats_breakdown[LOCAL_ACC_W][SECTOR_MISS] = 0
	L2_cache_stats_breakdown[L1_WRBK_ACC][HIT] = 0
	L2_cache_stats_breakdown[L1_WRBK_ACC][HIT_RESERVED] = 0
	L2_cache_stats_breakdown[L1_WRBK_ACC][MISS] = 0
	L2_cache_stats_breakdown[L1_WRBK_ACC][RESERVATION_FAIL] = 0
	L2_cache_stats_breakdown[L1_WRBK_ACC][SECTOR_MISS] = 0
	L2_cache_stats_breakdown[L2_WRBK_ACC][HIT] = 0
	L2_cache_stats_breakdown[L2_WRBK_ACC][HIT_RESERVED] = 0
	L2_cache_stats_breakdown[L2_WRBK_ACC][MISS] = 0
	L2_cache_stats_breakdown[L2_WRBK_ACC][RESERVATION_FAIL] = 0
	L2_cache_stats_breakdown[L2_WRBK_ACC][SECTOR_MISS] = 0
	L2_cache_stats_breakdown[INST_ACC_R][HIT] = 0
	L2_cache_stats_breakdown[INST_ACC_R][HIT_RESERVED] = 0
	L2_cache_stats_breakdown[INST_ACC_R][MISS] = 0
	L2_cache_stats_breakdown[INST_ACC_R][RESERVATION_FAIL] = 0
	L2_cache_stats_breakdown[INST_ACC_R][SECTOR_MISS] = 0
	L2_cache_stats_breakdown[L1_WR_ALLOC_R][HIT] = 0
	L2_cache_stats_breakdown[L1_WR_ALLOC_R][HIT_RESERVED] = 0
	L2_cache_stats_breakdown[L1_WR_ALLOC_R][MISS] = 0
	L2_cache_stats_breakdown[L1_WR_ALLOC_R][RESERVATION_FAIL] = 0
	L2_cache_stats_breakdown[L1_WR_ALLOC_R][SECTOR_MISS] = 0
	L2_cache_stats_breakdown[L2_WR_ALLOC_R][HIT] = 0
	L2_cache_stats_breakdown[L2_WR_ALLOC_R][HIT_RESERVED] = 0
	L2_cache_stats_breakdown[L2_WR_ALLOC_R][MISS] = 0
	L2_cache_stats_breakdown[L2_WR_ALLOC_R][RESERVATION_FAIL] = 0
	L2_cache_stats_breakdown[L2_WR_ALLOC_R][SECTOR_MISS] = 0
	L2_cache_stats_breakdown[GLOBAL_ACC_R][TOTAL_ACCESS] = 178270
	L2_cache_stats_breakdown[GLOBAL_ACC_W][TOTAL_ACCESS] = 7835
L2_total_cache_reservation_fail_breakdown:
L2_cache_data_port_util = 0.017
L2_cache_fill_port_util = 0.050

icnt_total_pkts_mem_to_simt=186105
icnt_total_pkts_simt_to_mem=186105
LD_mem_lat_dist  0 0 0 0 0 0 0 0 0 0 0 0 0 0 0 0 0 0 0 0 0 0 0 0 0 0 0
ST_mem_lat_dist  0 0 0 0 0 0 0 0 0 0 0 0 0 0 0 0 0 0 0 0 0 0 0 0 0 0 0
----------------------------Interconnect-DETAILS--------------------------------
Class 0:
Packet latency average = 8.26464
	minimum = 5
	maximum = 66
Network latency average = 8.26464
	minimum = 5
	maximum = 66
Slowest packet = 370935
Flit latency average = 8.26464
	minimum = 5
	maximum = 66
Slowest flit = 370935
Fragmentation average = 0
	minimum = 0
	maximum = 0
Injected packet rate average = 0.0750418
	minimum = 0.0361302 (at node 10)
	maximum = 0.0907232 (at node 50)
Accepted packet rate average = 0.0750418
	minimum = 0.0361302 (at node 10)
	maximum = 0.0907232 (at node 50)
Injected flit rate average = 0.0750418
	minimum = 0.0361302 (at node 10)
	maximum = 0.0907232 (at node 50)
Accepted flit rate average= 0.0750418
	minimum = 0.0361302 (at node 10)
	maximum = 0.0907232 (at node 50)
Injected packet length average = 1
Accepted packet length average = 1
Total in-flight flits = 0 (0 measured)
====== Overall Traffic Statistics ======
====== Traffic class 0 ======
Packet latency average = 8.59695 (5 samples)
	minimum = 5 (5 samples)
	maximum = 70 (5 samples)
Network latency average = 8.59695 (5 samples)
	minimum = 5 (5 samples)
	maximum = 70 (5 samples)
Flit latency average = 8.59695 (5 samples)
	minimum = 5 (5 samples)
	maximum = 70 (5 samples)
Fragmentation average = 0 (5 samples)
	minimum = 0 (5 samples)
	maximum = 0 (5 samples)
Injected packet rate average = 0.079016 (5 samples)
	minimum = 0.0431945 (5 samples)
	maximum = 0.0958696 (5 samples)
Accepted packet rate average = 0.079016 (5 samples)
	minimum = 0.0431945 (5 samples)
	maximum = 0.0958696 (5 samples)
Injected flit rate average = 0.079016 (5 samples)
	minimum = 0.0431945 (5 samples)
	maximum = 0.0958696 (5 samples)
Accepted flit rate average = 0.079016 (5 samples)
	minimum = 0.0431945 (5 samples)
	maximum = 0.0958696 (5 samples)
Injected packet size average = 1 (5 samples)
Accepted packet size average = 1 (5 samples)
Hops average = 1 (5 samples)
----------------------------END-of-Interconnect-DETAILS-------------------------


gpgpu_simulation_time = 0 days, 0 hrs, 2 min, 43 sec (163 sec)
gpgpu_simulation_rate = 385973 (inst/sec)
gpgpu_simulation_rate = 555 (cycle/sec)
gpgpu_silicon_slowdown = 2553153x
GPGPU-Sim: synchronize waiting for inactive GPU simulation
GPGPU-Sim API: Stream Manager State
GPGPU-Sim: detected inactive GPU simulation thread
GPGPU-Sim: *** exit detected ***
