

        *** GPGPU-Sim Simulator Version 4.0.0  [build gpgpu-sim_git-commit-90ec3399763d7c8512cfe7dc193473086c38ca38_modified_0.0] ***


GPGPU-Sim PTX: simulation mode 0 (can change with PTX_SIM_MODE_FUNC environment variable:
               1=functional simulation only, 0=detailed performance simulator)
GPGPU-Sim PTX: overriding embedded ptx with ptx file (PTX_SIM_USE_PTX_FILE is set)
GPGPU-Sim: Configuration options:

-save_embedded_ptx                      0 # saves ptx files embedded in binary as <n>.ptx
-keep                                   0 # keep intermediate files created by GPGPU-Sim when interfacing with external programs
-gpgpu_ptx_save_converted_ptxplus                    0 # Saved converted ptxplus to a file
-gpgpu_occupancy_sm_number                   70 # The SM number to pass to ptxas when getting register usage for computing GPU occupancy. This parameter is required in the config.
-ptx_opcode_latency_int      4,13,4,5,145,32 # Opcode latencies for integers <ADD,MAX,MUL,MAD,DIV,SHFL>Default 1,1,19,25,145,32
-ptx_opcode_latency_fp          4,13,4,5,39 # Opcode latencies for single precision floating points <ADD,MAX,MUL,MAD,DIV>Default 1,1,1,1,30
-ptx_opcode_latency_dp         8,19,8,8,330 # Opcode latencies for double precision floating points <ADD,MAX,MUL,MAD,DIV>Default 8,8,8,8,335
-ptx_opcode_latency_sfu                  100 # Opcode latencies for SFU instructionsDefault 8
-ptx_opcode_latency_tesnor                   64 # Opcode latencies for Tensor instructionsDefault 64
-ptx_opcode_initiation_int          2,2,2,2,8,4 # Opcode initiation intervals for integers <ADD,MAX,MUL,MAD,DIV,SHFL>Default 1,1,4,4,32,4
-ptx_opcode_initiation_fp            2,2,2,2,4 # Opcode initiation intervals for single precision floating points <ADD,MAX,MUL,MAD,DIV>Default 1,1,1,1,5
-ptx_opcode_initiation_dp          4,4,4,4,130 # Opcode initiation intervals for double precision floating points <ADD,MAX,MUL,MAD,DIV>Default 8,8,8,8,130
-ptx_opcode_initiation_sfu                    8 # Opcode initiation intervals for sfu instructionsDefault 8
-ptx_opcode_initiation_tensor                   64 # Opcode initiation intervals for tensor instructionsDefault 64
-cdp_latency         7200,8000,100,12000,1600 # CDP API latency <cudaStreamCreateWithFlags, cudaGetParameterBufferV2_init_perWarp, cudaGetParameterBufferV2_perKernel, cudaLaunchDeviceV2_init_perWarp, cudaLaunchDevicV2_perKernel>Default 7200,8000,100,12000,1600
-network_mode                           2 # Interconnection network mode
-inter_config_file                   mesh # Interconnection network config file
-icnt_in_buffer_limit                  512 # in_buffer_limit
-icnt_out_buffer_limit                  512 # out_buffer_limit
-icnt_subnets                           2 # subnets
-icnt_arbiter_algo                      1 # arbiter_algo
-icnt_verbose                           0 # inct_verbose
-icnt_grant_cycles                      1 # grant_cycles
-gpgpu_ptx_use_cuobjdump                    1 # Use cuobjdump to extract ptx and sass from binaries
-gpgpu_experimental_lib_support                    0 # Try to extract code from cuda libraries [Broken because of unknown cudaGetExportTable]
-checkpoint_option                      0 #  checkpointing flag (0 = no checkpoint)
-checkpoint_kernel                      1 #  checkpointing during execution of which kernel (1- 1st kernel)
-checkpoint_CTA                         0 #  checkpointing after # of CTA (< less than total CTA)
-resume_option                          0 #  resume flag (0 = no resume)
-resume_kernel                          0 #  Resume from which kernel (1= 1st kernel)
-resume_CTA                             0 #  resume from which CTA 
-checkpoint_CTA_t                       0 #  resume from which CTA 
-checkpoint_insn_Y                      0 #  resume from which CTA 
-gpgpu_ptx_convert_to_ptxplus                    0 # Convert SASS (native ISA) to ptxplus and run ptxplus
-gpgpu_ptx_force_max_capability                   70 # Force maximum compute capability
-gpgpu_ptx_inst_debug_to_file                    0 # Dump executed instructions' debug information to file
-gpgpu_ptx_inst_debug_file       inst_debug.txt # Executed instructions' debug output file
-gpgpu_ptx_inst_debug_thread_uid                    1 # Thread UID for executed instructions' debug output
-gpgpu_simd_model                       1 # 1 = post-dominator
-gpgpu_shader_core_pipeline              2048:32 # shader core pipeline config, i.e., {<nthread>:<warpsize>}
-gpgpu_tex_cache:l1  N:4:128:256,L:R:m:N:L,T:512:8,128:2 # per-shader L1 texture cache  (READ-ONLY) config  {<nsets>:<bsize>:<assoc>,<rep>:<wr>:<alloc>:<wr_alloc>,<mshr>:<N>:<merge>,<mq>:<rf>}
-gpgpu_const_cache:l1 N:128:64:8,L:R:f:N:L,S:2:64,4 # per-shader L1 constant memory cache  (READ-ONLY) config  {<nsets>:<bsize>:<assoc>,<rep>:<wr>:<alloc>:<wr_alloc>,<mshr>:<N>:<merge>,<mq>} 
-gpgpu_cache:il1     N:64:128:16,L:R:f:N:L,S:2:48,4 # shader L1 instruction cache config  {<nsets>:<bsize>:<assoc>,<rep>:<wr>:<alloc>:<wr_alloc>,<mshr>:<N>:<merge>,<mq>} 
-gpgpu_cache:dl1     S:1:128:256,L:L:s:N:L,A:256:8,16:0,32 # per-shader L1 data cache config  {<nsets>:<bsize>:<assoc>,<rep>:<wr>:<alloc>:<wr_alloc>,<mshr>:<N>:<merge>,<mq> | none}
-gpgpu_l1_banks                         4 # The number of L1 cache banks
-gpgpu_l1_banks_byte_interleaving                   32 # l1 banks byte interleaving granularity
-gpgpu_l1_banks_hashing_function                    0 # l1 banks hashing function
-gpgpu_l1_latency                      20 # L1 Hit Latency
-gpgpu_smem_latency                    20 # smem Latency
-gpgpu_cache:dl1PrefL1                 none # per-shader L1 data cache config  {<nsets>:<bsize>:<assoc>,<rep>:<wr>:<alloc>:<wr_alloc>,<mshr>:<N>:<merge>,<mq> | none}
-gpgpu_cache:dl1PrefShared                 none # per-shader L1 data cache config  {<nsets>:<bsize>:<assoc>,<rep>:<wr>:<alloc>:<wr_alloc>,<mshr>:<N>:<merge>,<mq> | none}
-gpgpu_gmem_skip_L1D                    0 # global memory access skip L1D cache (implements -Xptxas -dlcm=cg, default=no skip)
-gpgpu_perfect_mem                      0 # enable perfect memory mode (no cache miss)
-n_regfile_gating_group                    4 # group of lanes that should be read/written together)
-gpgpu_clock_gated_reg_file                    0 # enable clock gated reg file for power calculations
-gpgpu_clock_gated_lanes                    0 # enable clock gated lanes for power calculations
-gpgpu_shader_registers                65536 # Number of registers per shader core. Limits number of concurrent CTAs. (default 8192)
-gpgpu_registers_per_block                65536 # Maximum number of registers per CTA. (default 8192)
-gpgpu_ignore_resources_limitation                    0 # gpgpu_ignore_resources_limitation (default 0)
-gpgpu_shader_cta                      32 # Maximum number of concurrent CTAs in shader (default 8)
-gpgpu_num_cta_barriers                   16 # Maximum number of named barriers per CTA (default 16)
-gpgpu_n_clusters                      40 # number of processing clusters
-gpgpu_n_cores_per_cluster                    2 # number of simd cores per cluster
-gpgpu_n_cluster_ejection_buffer_size                   32 # number of packets in ejection buffer
-gpgpu_n_ldst_response_buffer_size                    2 # number of response packets in ld/st unit ejection buffer
-gpgpu_shmem_per_block                65536 # Size of shared memory per thread block or CTA (default 48kB)
-gpgpu_shmem_size                   98304 # Size of shared memory per shader core (default 16kB)
-gpgpu_adaptive_cache_config                    1 # adaptive_cache_config
-gpgpu_shmem_sizeDefault                98304 # Size of shared memory per shader core (default 16kB)
-gpgpu_shmem_size_PrefL1                16384 # Size of shared memory per shader core (default 16kB)
-gpgpu_shmem_size_PrefShared                16384 # Size of shared memory per shader core (default 16kB)
-gpgpu_shmem_num_banks                   32 # Number of banks in the shared memory in each shader core (default 16)
-gpgpu_shmem_limited_broadcast                    0 # Limit shared memory to do one broadcast per cycle (default on)
-gpgpu_shmem_warp_parts                    1 # Number of portions a warp is divided into for shared memory bank conflict check 
-gpgpu_mem_unit_ports                    1 # The number of memory transactions allowed per core cycle
-gpgpu_shmem_warp_parts                    1 # Number of portions a warp is divided into for shared memory bank conflict check 
-gpgpu_warpdistro_shader                   -1 # Specify which shader core to collect the warp size distribution from
-gpgpu_warp_issue_shader                    0 # Specify which shader core to collect the warp issue distribution from
-gpgpu_local_mem_map                    1 # Mapping from local memory space address to simulated GPU physical address space (default = enabled)
-gpgpu_num_reg_banks                    8 # Number of register banks (default = 8)
-gpgpu_reg_bank_use_warp_id                    0 # Use warp ID in mapping registers to banks (default = off)
-gpgpu_sub_core_model                    1 # Sub Core Volta/Pascal model (default = off)
-gpgpu_enable_specialized_operand_collector                    0 # enable_specialized_operand_collector
-gpgpu_operand_collector_num_units_sp                    4 # number of collector units (default = 4)
-gpgpu_operand_collector_num_units_dp                    0 # number of collector units (default = 0)
-gpgpu_operand_collector_num_units_sfu                    4 # number of collector units (default = 4)
-gpgpu_operand_collector_num_units_int                    0 # number of collector units (default = 0)
-gpgpu_operand_collector_num_units_tensor_core                    4 # number of collector units (default = 4)
-gpgpu_operand_collector_num_units_mem                    2 # number of collector units (default = 2)
-gpgpu_operand_collector_num_units_gen                    8 # number of collector units (default = 0)
-gpgpu_operand_collector_num_in_ports_sp                    1 # number of collector unit in ports (default = 1)
-gpgpu_operand_collector_num_in_ports_dp                    0 # number of collector unit in ports (default = 0)
-gpgpu_operand_collector_num_in_ports_sfu                    1 # number of collector unit in ports (default = 1)
-gpgpu_operand_collector_num_in_ports_int                    0 # number of collector unit in ports (default = 0)
-gpgpu_operand_collector_num_in_ports_tensor_core                    1 # number of collector unit in ports (default = 1)
-gpgpu_operand_collector_num_in_ports_mem                    1 # number of collector unit in ports (default = 1)
-gpgpu_operand_collector_num_in_ports_gen                    8 # number of collector unit in ports (default = 0)
-gpgpu_operand_collector_num_out_ports_sp                    1 # number of collector unit in ports (default = 1)
-gpgpu_operand_collector_num_out_ports_dp                    0 # number of collector unit in ports (default = 0)
-gpgpu_operand_collector_num_out_ports_sfu                    1 # number of collector unit in ports (default = 1)
-gpgpu_operand_collector_num_out_ports_int                    0 # number of collector unit in ports (default = 0)
-gpgpu_operand_collector_num_out_ports_tensor_core                    1 # number of collector unit in ports (default = 1)
-gpgpu_operand_collector_num_out_ports_mem                    1 # number of collector unit in ports (default = 1)
-gpgpu_operand_collector_num_out_ports_gen                    8 # number of collector unit in ports (default = 0)
-gpgpu_coalesce_arch                   60 # Coalescing arch (GT200 = 13, Fermi = 20)
-gpgpu_num_sched_per_core                    4 # Number of warp schedulers per core
-gpgpu_max_insn_issue_per_warp                    1 # Max number of instructions that can be issued per warp in one cycle by scheduler (either 1 or 2)
-gpgpu_dual_issue_diff_exec_units                    1 # should dual issue use two different execution unit resources (Default = 1)
-gpgpu_simt_core_sim_order                    1 # Select the simulation order of cores in a cluster (0=Fix, 1=Round-Robin)
-gpgpu_pipeline_widths 4,4,4,4,4,4,4,4,4,4,8,4,4 # Pipeline widths ID_OC_SP,ID_OC_DP,ID_OC_INT,ID_OC_SFU,ID_OC_MEM,OC_EX_SP,OC_EX_DP,OC_EX_INT,OC_EX_SFU,OC_EX_MEM,EX_WB,ID_OC_TENSOR_CORE,OC_EX_TENSOR_CORE
-gpgpu_tensor_core_avail                    1 # Tensor Core Available (default=0)
-gpgpu_num_sp_units                     4 # Number of SP units (default=1)
-gpgpu_num_dp_units                     4 # Number of DP units (default=0)
-gpgpu_num_int_units                    4 # Number of INT units (default=0)
-gpgpu_num_sfu_units                    4 # Number of SF units (default=1)
-gpgpu_num_tensor_core_units                    4 # Number of tensor_core units (default=1)
-gpgpu_num_mem_units                    1 # Number if ldst units (default=1) WARNING: not hooked up to anything
-gpgpu_scheduler     two_level_active:6:0:1 # Scheduler configuration: < lrr | gto | two_level_active > If two_level_active:<num_active_warps>:<inner_prioritization>:<outer_prioritization>For complete list of prioritization values see shader.h enum scheduler_prioritization_typeDefault: gto
-gpgpu_concurrent_kernel_sm                    0 # Support concurrent kernels on a SM (default = disabled)
-gpgpu_perfect_inst_const_cache                    1 # perfect inst and const cache mode, so all inst and const hits in the cache(default = disabled)
-gpgpu_inst_fetch_throughput                    4 # the number of fetched intruction per warp each cycle
-gpgpu_reg_file_port_throughput                    2 # the number ports of the register file
-specialized_unit_1         0,4,4,4,4,BRA # specialized unit config {<enabled>,<num_units>:<latency>:<initiation>,<ID_OC_SPEC>:<OC_EX_SPEC>,<NAME>}
-specialized_unit_2         0,4,4,4,4,BRA # specialized unit config {<enabled>,<num_units>:<latency>:<initiation>,<ID_OC_SPEC>:<OC_EX_SPEC>,<NAME>}
-specialized_unit_3         0,4,4,4,4,BRA # specialized unit config {<enabled>,<num_units>:<latency>:<initiation>,<ID_OC_SPEC>:<OC_EX_SPEC>,<NAME>}
-specialized_unit_4         0,4,4,4,4,BRA # specialized unit config {<enabled>,<num_units>:<latency>:<initiation>,<ID_OC_SPEC>:<OC_EX_SPEC>,<NAME>}
-specialized_unit_5         0,4,4,4,4,BRA # specialized unit config {<enabled>,<num_units>:<latency>:<initiation>,<ID_OC_SPEC>:<OC_EX_SPEC>,<NAME>}
-specialized_unit_6         0,4,4,4,4,BRA # specialized unit config {<enabled>,<num_units>:<latency>:<initiation>,<ID_OC_SPEC>:<OC_EX_SPEC>,<NAME>}
-specialized_unit_7         0,4,4,4,4,BRA # specialized unit config {<enabled>,<num_units>:<latency>:<initiation>,<ID_OC_SPEC>:<OC_EX_SPEC>,<NAME>}
-specialized_unit_8         0,4,4,4,4,BRA # specialized unit config {<enabled>,<num_units>:<latency>:<initiation>,<ID_OC_SPEC>:<OC_EX_SPEC>,<NAME>}
-gpgpu_perf_sim_memcpy                    1 # Fill the L2 cache on memcpy
-gpgpu_simple_dram_model                    0 # simple_dram_model with fixed latency and BW
-gpgpu_dram_scheduler                    1 # 0 = fifo, 1 = FR-FCFS (defaul)
-gpgpu_dram_partition_queues          64:64:64:64 # i2$:$2d:d2$:$2i
-l2_ideal                               0 # Use a ideal L2 cache that always hit
-gpgpu_cache:dl2     S:32:128:24,L:B:m:L:P,A:192:4,32:0,32 # unified banked L2 data cache config  {<nsets>:<bsize>:<assoc>,<rep>:<wr>:<alloc>:<wr_alloc>,<mshr>:<N>:<merge>,<mq>}
-gpgpu_cache:dl2_texture_only                    0 # L2 cache used for texture only
-gpgpu_n_mem                           24 # number of memory modules (e.g. memory controllers) in gpu
-gpgpu_n_sub_partition_per_mchannel                    2 # number of memory subpartition in each memory module
-gpgpu_n_mem_per_ctrlr                    1 # number of memory chips per memory controller
-gpgpu_memlatency_stat                   14 # track and display latency statistics 0x2 enables MC, 0x4 enables queue logs
-gpgpu_frfcfs_dram_sched_queue_size                   64 # 0 = unlimited (default); # entries per chip
-gpgpu_dram_return_queue_size                  192 # 0 = unlimited (default); # entries per chip
-gpgpu_dram_buswidth                   16 # default = 4 bytes (8 bytes per cycle at DDR)
-gpgpu_dram_burst_length                    2 # Burst length of each DRAM request (default = 4 data bus cycle)
-dram_data_command_freq_ratio                    2 # Frequency ratio between DRAM data bus and command bus (default = 2 times, i.e. DDR)
-gpgpu_dram_timing_opt nbk=16:CCD=1:RRD=3:RCD=12:RAS=28:RP=12:RC=40: CL=12:WL=2:CDLR=3:WR=10:nbkgrp=4:CCDL=2:RTPL=3 # DRAM timing parameters = {nbk:tCCD:tRRD:tRCD:tRAS:tRP:tRC:CL:WL:tCDLR:tWR:nbkgrp:tCCDL:tRTPL}
-gpgpu_l2_rop_latency                  160 # ROP queue latency (default 85)
-dram_latency                         100 # DRAM latency (default 30)
-dram_dual_bus_interface                  257 # dual_bus_interface (default = 0) 
-dram_bnk_indexing_policy                    1 # dram_bnk_indexing_policy (0 = normal indexing, 1 = Xoring with the higher bits) (Default = 0)
-dram_bnkgrp_indexing_policy                    1 # dram_bnkgrp_indexing_policy (0 = take higher bits, 1 = take lower bits) (Default = 0)
-dram_seperate_write_queue_enable                    1 # Seperate_Write_Queue_Enable
-dram_write_queue_size           128:108:32 # Write_Queue_Size
-dram_elimnate_rw_turnaround                    0 # elimnate_rw_turnaround i.e set tWTR and tRTW = 0
-icnt_flit_size                        40 # icnt_flit_size
-gpgpu_mem_addr_mapping dramid@8;00000000.00000000.00000000.00000000.0000RRRR.RRRRRRRR.RBBBCCCB.CCCSSSSS # mapping memory address to dram model {dramid@<start bit>;<memory address map>}
-gpgpu_mem_addr_test                    0 # run sweep test to check address mapping for aliased address
-gpgpu_mem_address_mask                    1 # 0 = old addressing mask, 1 = new addressing mask, 2 = new add. mask + flipped bank sel and chip sel bits
-gpgpu_memory_partition_indexing                    2 # 0 = no indexing, 1 = bitwise xoring, 2 = IPoly, 3 = custom indexing
-gpuwattch_xml_file         gpuwattch.xml # GPUWattch XML file
-power_simulation_enabled                    1 # Turn on power simulator (1=On, 0=Off)
-power_per_cycle_dump                    0 # Dump detailed power output each cycle
-power_trace_enabled                    0 # produce a file for the power trace (1=On, 0=Off)
-power_trace_zlevel                     6 # Compression level of the power trace output log (0=no comp, 9=highest)
-steady_power_levels_enabled                    0 # produce a file for the steady power levels (1=On, 0=Off)
-steady_state_definition                  8:4 # allowed deviation:number of samples
-gpgpu_max_cycle                        0 # terminates gpu simulation early (0 = no limit)
-gpgpu_max_insn                         0 # terminates gpu simulation early (0 = no limit)
-gpgpu_max_cta                          0 # terminates gpu simulation early (0 = no limit)
-gpgpu_max_completed_cta                    0 # terminates gpu simulation early (0 = no limit)
-gpgpu_runtime_stat                   500 # display runtime statistics such as dram utilization {<freq>:<flag>}
-liveness_message_freq                    1 # Minimum number of seconds between simulation liveness messages (0 = always print)
-gpgpu_compute_capability_major                    7 # Major compute capability version number
-gpgpu_compute_capability_minor                    0 # Minor compute capability version number
-gpgpu_flush_l1_cache                    1 # Flush L1 cache at the end of each kernel call
-gpgpu_flush_l2_cache                    0 # Flush L2 cache at the end of each kernel call
-gpgpu_deadlock_detect                    1 # Stop the simulation at deadlock (1=on (default), 0=off)
-gpgpu_ptx_instruction_classification                    0 # if enabled will classify ptx instruction types per kernel (Max 255 kernels now)
-gpgpu_ptx_sim_mode                     0 # Select between Performance (default) or Functional simulation (1)
-gpgpu_clock_domains 1200.0:1200.0:1200.0:850.0 # Clock Domain Frequencies in MhZ {<Core Clock>:<ICNT Clock>:<L2 Clock>:<DRAM Clock>}
-gpgpu_max_concurrent_kernel                    8 # maximum kernels that can run concurrently on GPU
-gpgpu_cflog_interval                    0 # Interval between each snapshot in control flow logger
-visualizer_enabled                     0 # Turn on visualizer output (1=On, 0=Off)
-visualizer_outputfile                 NULL # Specifies the output log file for visualizer
-visualizer_zlevel                      6 # Compression level of the visualizer output log (0=no comp, 9=highest)
-gpgpu_stack_size_limit                 1024 # GPU thread stack size
-gpgpu_heap_size_limit              8388608 # GPU malloc heap siz59a283382b8bd4d15cbe5d195e122ec6  /home/ishan/COA/Lab4/gpu-rodinia/cuda/pathfinder/a.out
Extracting PTX file and ptxas options    1: a.1.sm_52.ptx -arch=sm_52
e 
-gpgpu_runtime_sync_depth_limit                    2 # GPU device runtime synchronize depth
-gpgpu_runtime_pending_launch_count_limit                 2048 # GPU device runtime pending launch count
-trace_enabled                          0 # Turn on traces
-trace_components                    none # comma seperated list of traces to enable. Complete list found in trace_streams.tup. Default none
-trace_sampling_core                    0 # The core which is printed using CORE_DPRINTF. Default 0
-trace_sampling_memory_partition                   -1 # The memory partition which is printed using MEMPART_DPRINTF. Default -1 (i.e. all)
-enable_ptx_file_line_stats                    1 # Turn on PTX source line statistic profiling. (1 = On)
-ptx_line_stats_filename gpgpu_inst_stats.txt # Output file for PTX source line statistics.
-gpgpu_kernel_launch_latency                    0 # Kernel launch latency in cycles. Default: 0
-gpgpu_cdp_enabled                      0 # Turn on CDP
-gpgpu_TB_launch_latency                    0 # thread block launch latency in cycles. Default: 0
DRAM Timing Options:
nbk                                    16 # number of banks
CCD                                     1 # column to column delay
RRD                                     3 # minimal delay between activation of rows in different banks
RCD                                    12 # row to column delay
RAS                                    28 # time needed to activate row
RP                                     12 # time needed to precharge (deactivate) row
RC                                     40 # row cycle time
CDLR                                    3 # switching from write to read (changes tWTR)
WR                                     10 # last data-in to row precharge
CL                                     12 # CAS latency
WL                                      2 # Write latency
nbkgrp                                  4 # number of bank groups
CCDL                                    2 # column to column delay between accesses to different bank groups
RTPL                                    3 # read to precharge delay between accesses to different bank groups
Total number of memory sub partition = 48
addr_dec_mask[CHIP]  = 0000000000000000 	high:64 low:0
addr_dec_mask[BK]    = 0000000000007100 	high:15 low:8
addr_dec_mask[ROW]   = 000000000fff8000 	high:28 low:15
addr_dec_mask[COL]   = 0000000000000eff 	high:12 low:0
addr_dec_mask[BURST] = 000000000000001f 	high:5 low:0
sub_partition_id_mask = 0000000000000100
GPGPU-Sim uArch: clock freqs: 1200000000.000000:1200000000.000000:1200000000.000000:850000000.000000
GPGPU-Sim uArch: clock periods: 0.00000000083333333333:0.00000000083333333333:0.00000000083333333333:0.00000000117647058824
*** Initializing Memory Statistics ***
GPGPU-Sim uArch: performance model initialization complete.
self exe links to: /home/ishan/COA/Lab4/gpu-rodinia/cuda/pathfinder/a.out
self exe links to: /home/ishan/COA/Lab4/gpu-rodinia/cuda/pathfinder/a.out
11.0
GPGPU-Sim PTX: __cudaRegisterFatBinary, fat_cubin_handle = 1, filename=default
self exe links to: /home/ishan/COA/Lab4/gpu-rodinia/cuda/pathfinder/a.out
Running md5sum using "md5sum /home/ishan/COA/Lab4/gpu-rodinia/cuda/pathfinder/a.out "
self exe links to: /home/ishan/COA/Lab4/gpu-rodinia/cuda/pathfinder/a.out
Extracting specific PTX file named a.1.sm_52.ptx 
GPGPU-Sim PTX: __cudaRegisterFunction _Z14dynproc_kerneliPiS_S_iiii : hostFun 0x0x55dfa6378ba4, fat_cubin_handle = 1
GPGPU-Sim PTX: Parsing a.1.sm_52.ptx
GPGPU-Sim PTX: allocating shared region for "_ZZ14dynproc_kerneliPiS_S_iiiiE4prev" from 0x0 to 0x400 (shared memory space)
GPGPU-Sim PTX: allocating shared region for "_ZZ14dynproc_kerneliPiS_S_iiiiE6result" from 0x400 to 0x800 (shared memory space)
GPGPU-Sim PTX: instruction assembly for function '_Z14dynproc_kerneliPiS_S_iiii'...   done.
GPGPU-Sim PTX: finished parsing EMBEDDED .ptx file a.1.sm_52.ptx
GPGPU-Sim PTX: loading globals with explicit initializers... 
GPGPU-Sim PTX: finished loading globals (0 bytes total).
GPGPU-Sim PTX: loading constants with explicit initializers...  done.
GPGPU-Sim PTX: Loading PTXInfo from a.1.sm_52.ptx
GPGPU-Sim PTX: Kernel '_Z14dynproc_kerneliPiS_S_iiii' : regs=18, lmem=0, smem=2048, cmem=368
pyramidHeight: 20
gridSize: [10000]
border:[20]
blockSize: 256
blockGrid:[47]
targetBlock:[216]
GPGPU-Sim PTX: Setting up arguments for 4 bytes starting at 0x7ffc1befb66c..
GPGPU-Sim PTX: Setting up arguments for 8 bytes starting at 0x7ffc1befb660..
GPGPU-Sim PTX: Setting up arguments for 8 bytes starting at 0x7ffc1befb658..
GPGPU-Sim PTX: Setting up arguments for 8 bytes starting at 0x7ffc1befb650..
GPGPU-Sim PTX: Setting up arguments for 4 bytes starting at 0x7ffc1befb668..
GPGPU-Sim PTX: Setting up arguments for 4 bytes starting at 0x7ffc1befb64c..
GPGPU-Sim PTX: Setting up arguments for 4 bytes starting at 0x7ffc1befb700..
GPGPU-Sim PTX: Setting up arguments for 4 bytes starting at 0x7ffc1befb708..

GPGPU-Sim PTX: cudaLaunch for 0x0x55dfa6378ba4 (mode=performance simulation) on stream 0
GPGPU-Sim PTX: finding reconvergence points for '_Z14dynproc_kerneliPiS_S_iiii'...
GPGPU-Sim PTX: Finding dominators for '_Z14dynproc_kerneliPiS_S_iiii'...
GPGPU-Sim PTX: Finding immediate dominators for '_Z14dynproc_kerneliPiS_S_iiii'...
GPGPU-Sim PTX: Finding postdominators for '_Z14dynproc_kerneliPiS_S_iiii'...
GPGPU-Sim PTX: Finding immediate postdominators for '_Z14dynproc_kerneliPiS_S_iiii'...
GPGPU-Sim PTX: pre-decoding instructions for '_Z14dynproc_kerneliPiS_S_iiii'...
GPGPU-Sim PTX: reconvergence points for _Z14dynproc_kerneliPiS_S_iiii...
GPGPU-Sim PTX:  1 (potential) branch divergence @  PC=0x0c0 (a.1.sm_52.ptx:61) @!%p3 bra BB0_2;
GPGPU-Sim PTX:    immediate post dominator      @  PC=0x110 (a.1.sm_52.ptx:75) bar.sync 0;
GPGPU-Sim PTX:  2 (potential) branch divergence @  PC=0x0c8 (a.1.sm_52.ptx:62) bra.uni BB0_1;
GPGPU-Sim PTX:    immediate post dominator      @  PC=0x0d0 (a.1.sm_52.ptx:65) cvta.to.global.u64 %rd4, %rd2;
GPGPU-Sim PTX:  3 (potential) branch divergence @  PC=0x120 (a.1.sm_52.ptx:77) @%p4 bra BB0_10;
GPGPU-Sim PTX:    immediate post dominator      @  PC=0x338 (a.1.sm_52.ptx:157) and.b16 %rs6, %rs8, 255;
GPGPU-Sim PTX:  4 (potential) branch divergence @  PC=0x208 (a.1.sm_52.ptx:109) @!%p12 bra BB0_6;
GPGPU-Sim PTX:    immediate post dominator      @  PC=0x2b8 (a.1.sm_52.ptx:135) bar.sync 0;
GPGPU-Sim PTX:  5 (potential) branch divergence @  PC=0x210 (a.1.sm_52.ptx:110) bra.uni BB0_5;
GPGPU-Sim PTX:    immediate post dominator      @  PC=0x218 (a.1.sm_52.ptx:113) ld.shared.u32 %r70, [%r2];
GPGPU-Sim PTX:  6 (potential) branch divergence @  PC=0x2c8 (a.1.sm_52.ptx:137) @%p15 bra BB0_10;
GPGPU-Sim PTX:    immediate post dominator      @  PC=0x338 (a.1.sm_52.ptx:157) and.b16 %rs6, %rs8, 255;
GPGPU-Sim PTX:  7 (potential) branch divergence @  PC=0x2d8 (a.1.sm_52.ptx:140) @%p16 bra BB0_9;
GPGPU-Sim PTX:    immediate post dominator      @  PC=0x310 (a.1.sm_52.ptx:150) bar.sync 0;
GPGPU-Sim PTX:  8 (potential) branch divergence @  PC=0x330 (a.1.sm_52.ptx:154) @%p17 bra BB0_4;
GPGPU-Sim PTX:    immediate post dominator      @  PC=0x338 (a.1.sm_52.ptx:157) and.b16 %rs6, %rs8, 255;
GPGPU-Sim PTX:  9 (potential) branch divergence @  PC=0x348 (a.1.sm_52.ptx:159) @%p18 bra BB0_12;
GPGPU-Sim PTX:    immediate post dominator      @  PC=0x390 (a.1.sm_52.ptx:171) ret;
GPGPU-Sim PTX: ... end of reconvergence points for _Z14dynproc_kerneliPiS_S_iiii
GPGPU-Sim PTX: ... done pre-decoding instructions for '_Z14dynproc_kerneliPiS_S_iiii'.
GPGPU-Sim PTX: pushing kernel '_Z14dynproc_kerneliPiS_S_iiii' to stream 0, gridDim= (47,1,1) blockDim = (256,1,1) 
GPGPU-Sim uArch: Shader 0 bind to kernel 1 '_Z14dynproc_kerneliPiS_S_iiii'
GPGPU-Sim uArch: CTA/core = 8, limited by: threads
GPGPU-Sim: Reconfigure L1 cache to 120KB
GPGPU-Sim uArch: Shader 2 bind to kernel 1 '_Z14dynproc_kerneliPiS_S_iiii'
GPGPU-Sim uArch: Shader 4 bind to kernel 1 '_Z14dynproc_kerneliPiS_S_iiii'
GPGPU-Sim uArch: Shader 6 bind to kernel 1 '_Z14dynproc_kerneliPiS_S_iiii'
GPGPU-Sim uArch: Shader 8 bind to kernel 1 '_Z14dynproc_kerneliPiS_S_iiii'
GPGPU-Sim uArch: Shader 10 bind to kernel 1 '_Z14dynproc_kerneliPiS_S_iiii'
GPGPU-Sim uArch: Shader 12 bind to kernel 1 '_Z14dynproc_kerneliPiS_S_iiii'
GPGPU-Sim uArch: Shader 14 bind to kernel 1 '_Z14dynproc_kerneliPiS_S_iiii'
GPGPU-Sim uArch: Shader 16 bind to kernel 1 '_Z14dynproc_kerneliPiS_S_iiii'
GPGPU-Sim uArch: Shader 18 bind to kernel 1 '_Z14dynproc_kerneliPiS_S_iiii'
GPGPU-Sim uArch: Shader 20 bind to kernel 1 '_Z14dynproc_kerneliPiS_S_iiii'
GPGPU-Sim uArch: Shader 22 bind to kernel 1 '_Z14dynproc_kerneliPiS_S_iiii'
GPGPU-Sim uArch: Shader 24 bind to kernel 1 '_Z14dynproc_kerneliPiS_S_iiii'
GPGPU-Sim uArch: Shader 26 bind to kernel 1 '_Z14dynproc_kerneliPiS_S_iiii'
GPGPU-Sim uArch: Shader 28 bind to kernel 1 '_Z14dynproc_kerneliPiS_S_iiii'
GPGPU-Sim uArch: Shader 30 bind to kernel 1 '_Z14dynproc_kerneliPiS_S_iiii'
GPGPU-Sim uArch: Shader 32 bind to kernel 1 '_Z14dynproc_kerneliPiS_S_iiii'
GPGPU-Sim uArch: Shader 34 bind to kernel 1 '_Z14dynproc_kerneliPiS_S_iiii'
GPGPU-Sim uArch: Shader 36 bind to kernel 1 '_Z14dynproc_kerneliPiS_S_iiii'
GPGPU-Sim uArch: Shader 38 bind to kernel 1 '_Z14dynproc_kerneliPiS_S_iiii'
GPGPU-Sim uArch: Shader 40 bind to kernel 1 '_Z14dynproc_kerneliPiS_S_iiii'
GPGPU-Sim uArch: Shader 42 bind to kernel 1 '_Z14dynproc_kerneliPiS_S_iiii'
GPGPU-Sim uArch: Shader 44 bind to kernel 1 '_Z14dynproc_kerneliPiS_S_iiii'
GPGPU-Sim uArch: Shader 46 bind to kernel 1 '_Z14dynproc_kerneliPiS_S_iiii'
GPGPU-Sim uArch: Shader 48 bind to kernel 1 '_Z14dynproc_kerneliPiS_S_iiii'
GPGPU-Sim uArch: Shader 50 bind to kernel 1 '_Z14dynproc_kerneliPiS_S_iiii'
GPGPU-Sim uArch: Shader 52 bind to kernel 1 '_Z14dynproc_kerneliPiS_S_iiii'
GPGPU-Sim uArch: Shader 54 bind to kernel 1 '_Z14dynproc_kerneliPiS_S_iiii'
GPGPU-Sim uArch: Shader 56 bind to kernel 1 '_Z14dynproc_kerneliPiS_S_iiii'
GPGPU-Sim uArch: Shader 58 bind to kernel 1 '_Z14dynproc_kerneliPiS_S_iiii'
GPGPU-Sim uArch: Shader 60 bind to kernel 1 '_Z14dynproc_kerneliPiS_S_iiii'
GPGPU-Sim uArch: Shader 62 bind to kernel 1 '_Z14dynproc_kerneliPiS_S_iiii'
GPGPU-Sim uArch: Shader 64 bind to kernel 1 '_Z14dynproc_kerneliPiS_S_iiii'
GPGPU-Sim uArch: Shader 66 bind to kernel 1 '_Z14dynproc_kerneliPiS_S_iiii'
GPGPU-Sim uArch: Shader 68 bind to kernel 1 '_Z14dynproc_kerneliPiS_S_iiii'
GPGPU-Sim uArch: Shader 70 bind to kernel 1 '_Z14dynproc_kerneliPiS_S_iiii'
GPGPU-Sim uArch: Shader 72 bind to kernel 1 '_Z14dynproc_kerneliPiS_S_iiii'
GPGPU-Sim uArch: Shader 74 bind to kernel 1 '_Z14dynproc_kerneliPiS_S_iiii'
GPGPU-Sim uArch: Shader 76 bind to kernel 1 '_Z14dynproc_kerneliPiS_S_iiii'
GPGPU-Sim uArch: Shader 78 bind to kernel 1 '_Z14dynproc_kerneliPiS_S_iiii'
GPGPU-Sim uArch: Shader 1 bind to kernel 1 '_Z14dynproc_kerneliPiS_S_iiii'
GPGPU-Sim uArch: Shader 3 bind to kernel 1 '_Z14dynproc_kerneliPiS_S_iiii'
GPGPU-Sim uArch: Shader 5 bind to kernel 1 '_Z14dynproc_kerneliPiS_S_iiii'
GPGPU-Sim uArch: Shader 7 bind to kernel 1 '_Z14dynproc_kerneliPiS_S_iiii'
GPGPU-Sim uArch: Shader 9 bind to kernel 1 '_Z14dynproc_kerneliPiS_S_iiii'
GPGPU-Sim uArch: Shader 11 bind to kernel 1 '_Z14dynproc_kerneliPiS_S_iiii'
GPGPU-Sim uArch: Shader 13 bind to kernel 1 '_Z14dynproc_kerneliPiS_S_iiii'
Destroy streams for kernel 1: size 0
kernel_name = _Z14dynproc_kerneliPiS_S_iiii 
kernel_launch_uid = 1 
gpu_sim_cycle = 12845
gpu_sim_insn = 12710760
gpu_ipc =     989.5493
gpu_tot_sim_cycle = 12845
gpu_tot_sim_insn = 12710760
gpu_tot_ipc =     989.5493
gpu_tot_issued_cta = 47
gpu_occupancy = 12.4804% 
gpu_tot_occupancy = 12.4804% 
max_total_param_size = 0
gpu_stall_dramfull = 0
gpu_stall_icnt2sh    = 0
partiton_level_parallism =       2.4240
partiton_level_parallism_total  =       2.4240
partiton_level_parallism_util =       3.1505
partiton_level_parallism_util_total  =       3.1505
L2_BW  =      93.0808 GB/Sec
L2_BW_total  =      93.0808 GB/Sec
gpu_total_sim_rate=270441

========= Core cache stats =========
L1I_cache:
	L1I_total_cache_accesses = 0
	L1I_total_cache_misses = 0
	L1I_total_cache_pending_hits = 0
	L1I_total_cache_reservation_fails = 0
L1D_cache:
	L1D_cache_core[0]: Access = 1604, Miss = 1604, Miss_rate = 1.000, Pending_hits = 0, Reservation_fails = 0
	L1D_cache_core[1]: Access = 1640, Miss = 1640, Miss_rate = 1.000, Pending_hits = 0, Reservation_fails = 0
	L1D_cache_core[2]: Access = 1640, Miss = 1640, Miss_rate = 1.000, Pending_hits = 0, Reservation_fails = 0
	L1D_cache_core[3]: Access = 1640, Miss = 1640, Miss_rate = 1.000, Pending_hits = 0, Reservation_fails = 0
	L1D_cache_core[4]: Access = 1640, Miss = 1640, Miss_rate = 1.000, Pending_hits = 0, Reservation_fails = 0
	L1D_cache_core[5]: Access = 1640, Miss = 1640, Miss_rate = 1.000, Pending_hits = 0, Reservation_fails = 0
	L1D_cache_core[6]: Access = 1076, Miss = 1076, Miss_rate = 1.000, Pending_hits = 0, Reservation_fails = 0
	L1D_cache_core[7]: Access = 820, Miss = 820, Miss_rate = 1.000, Pending_hits = 0, Reservation_fails = 0
	L1D_cache_core[8]: Access = 820, Miss = 820, Miss_rate = 1.000, Pending_hits = 0, Reservation_fails = 0
	L1D_cache_core[9]: Access = 820, Miss = 820, Miss_rate = 1.000, Pending_hits = 0, Reservation_fails = 0
	L1D_cache_core[10]: Access = 820, Miss = 820, Miss_rate = 1.000, Pending_hits = 0, Reservation_fails = 0
	L1D_cache_core[11]: Access = 820, Miss = 820, Miss_rate = 1.000, Pending_hits = 0, Reservation_fails = 0
	L1D_cache_core[12]: Access = 820, Miss = 820, Miss_rate = 1.000, Pending_hits = 0, Reservation_fails = 0
	L1D_cache_core[13]: Access = 820, Miss = 820, Miss_rate = 1.000, Pending_hits = 0, Reservation_fails = 0
	L1D_cache_core[14]: Access = 820, Miss = 820, Miss_rate = 1.000, Pending_hits = 0, Reservation_fails = 0
	L1D_cache_core[15]: Access = 820, Miss = 820, Miss_rate = 1.000, Pending_hits = 0, Reservation_fails = 0
	L1D_cache_core[16]: Access = 820, Miss = 820, Miss_rate = 1.000, Pending_hits = 0, Reservation_fails = 0
	L1D_cache_core[17]: Access = 820, Miss = 820, Miss_rate = 1.000, Pending_hits = 0, Reservation_fails = 0
	L1D_cache_core[18]: Access = 820, Miss = 820, Miss_rate = 1.000, Pending_hits = 0, Reservation_fails = 0
	L1D_cache_core[19]: Access = 820, Miss = 820, Miss_rate = 1.000, Pending_hits = 0, Reservation_fails = 0
	L1D_cache_core[20]: Access = 820, Miss = 820, Miss_rate = 1.000, Pending_hits = 0, Reservation_fails = 0
	L1D_cache_core[21]: Access = 820, Miss = 820, Miss_rate = 1.000, Pending_hits = 0, Reservation_fails = 0
	L1D_cache_core[22]: Access = 820, Miss = 820, Miss_rate = 1.000, Pending_hits = 0, Reservation_fails = 0
	L1D_cache_core[23]: Access = 820, Miss = 820, Miss_rate = 1.000, Pending_hits = 0, Reservation_fails = 0
	L1D_cache_core[24]: Access = 820, Miss = 820, Miss_rate = 1.000, Pending_hits = 0, Reservation_fails = 0
	L1D_cache_core[25]: Access = 820, Miss = 820, Miss_rate = 1.000, Pending_hits = 0, Reservation_fails = 0
	L1D_cache_core[26]: Access = 820, Miss = 820, Miss_rate = 1.000, Pending_hits = 0, Reservation_fails = 0
	L1D_cache_core[27]: Access = 820, Miss = 820, Miss_rate = 1.000, Pending_hits = 0, Reservation_fails = 0
	L1D_cache_core[28]: Access = 820, Miss = 820, Miss_rate = 1.000, Pending_hits = 0, Reservation_fails = 0
	L1D_cache_core[29]: Access = 820, Miss = 820, Miss_rate = 1.000, Pending_hits = 0, Reservation_fails = 0
	L1D_cache_core[30]: Access = 820, Miss = 820, Miss_rate = 1.000, Pending_hits = 0, Reservation_fails = 0
	L1D_cache_core[31]: Access = 820, Miss = 820, Miss_rate = 1.000, Pending_hits = 0, Reservation_fails = 0
	L1D_cache_core[32]: Access = 820, Miss = 820, Miss_rate = 1.000, Pending_hits = 0, Reservation_fails = 0
	L1D_cache_core[33]: Access = 820, Miss = 820, Miss_rate = 1.000, Pending_hits = 0, Reservation_fails = 0
	L1D_cache_core[34]: Access = 820, Miss = 820, Miss_rate = 1.000, Pending_hits = 0, Reservation_fails = 0
	L1D_cache_core[35]: Access = 820, Miss = 820, Miss_rate = 1.000, Pending_hits = 0, Reservation_fails = 0
	L1D_cache_core[36]: Access = 820, Miss = 820, Miss_rate = 1.000, Pending_hits = 0, Reservation_fails = 0
	L1D_cache_core[37]: Access = 820, Miss = 820, Miss_rate = 1.000, Pending_hits = 0, Reservation_fails = 0
	L1D_cache_core[38]: Access = 820, Miss = 820, Miss_rate = 1.000, Pending_hits = 0, Reservation_fails = 0
	L1D_cache_core[39]: Access = 820, Miss = 820, Miss_rate = 1.000, Pending_hits = 0, Reservation_fails = 0
	L1D_total_cache_accesses = 37940
	L1D_total_cache_misses = 37940
	L1D_total_cache_miss_rate = 1.0000
	L1D_total_cache_pending_hits = 0
	L1D_total_cache_reservation_fails = 0
	L1D_cache_data_port_util = 0.000
	L1D_cache_fill_port_util = 0.051
L1C_cache:
	L1C_total_cache_accesses = 0
	L1C_total_cache_misses = 0
	L1C_total_cache_pending_hits = 0
	L1C_total_cache_reservation_fails = 0
L1T_cache:
	L1T_total_cache_accesses = 0
	L1T_total_cache_misses = 0
	L1T_total_cache_pending_hits = 0
	L1T_total_cache_reservation_fails = 0

Total_core_cache_stats:
	Total_core_cache_stats_breakdown[GLOBAL_ACC_R][HIT] = 0
	Total_core_cache_stats_breakdown[GLOBAL_ACC_R][HIT_RESERVED] = 0
	Total_core_cache_stats_breakdown[GLOBAL_ACC_R][MISS] = 19479
	Total_core_cache_stats_breakdown[GLOBAL_ACC_R][RESERVATION_FAIL] = 0
	Total_core_cache_stats_breakdown[GLOBAL_ACC_R][SECTOR_MISS] = 16887
	Total_core_cache_stats_breakdown[LOCAL_ACC_R][HIT] = 0
	Total_core_cache_stats_breakdown[LOCAL_ACC_R][HIT_RESERVED] = 0
	Total_core_cache_stats_breakdown[LOCAL_ACC_R][MISS] = 0
	Total_core_cache_stats_breakdown[LOCAL_ACC_R][RESERVATION_FAIL] = 0
	Total_core_cache_stats_breakdown[LOCAL_ACC_R][SECTOR_MISS] = 0
	Total_core_cache_stats_breakdown[CONST_ACC_R][HIT] = 0
	Total_core_cache_stats_breakdown[CONST_ACC_R][HIT_RESERVED] = 0
	Total_core_cache_stats_breakdown[CONST_ACC_R][MISS] = 0
	Total_core_cache_stats_breakdown[CONST_ACC_R][RESERVATION_FAIL] = 0
	Total_core_cache_stats_breakdown[CONST_ACC_R][SECTOR_MISS] = 0
	Total_core_cache_stats_breakdown[TEXTURE_ACC_R][HIT] = 0
	Total_core_cache_stats_breakdown[TEXTURE_ACC_R][HIT_RESERVED] = 0
	Total_core_cache_stats_breakdown[TEXTURE_ACC_R][MISS] = 0
	Total_core_cache_stats_breakdown[TEXTURE_ACC_R][RESERVATION_FAIL] = 0
	Total_core_cache_stats_breakdown[TEXTURE_ACC_R][SECTOR_MISS] = 0
	Total_core_cache_stats_breakdown[GLOBAL_ACC_W][HIT] = 0
	Total_core_cache_stats_breakdown[GLOBAL_ACC_W][HIT_RESERVED] = 0
	Total_core_cache_stats_breakdown[GLOBAL_ACC_W][MISS] = 1574
	Total_core_cache_stats_breakdown[GLOBAL_ACC_W][RESERVATION_FAIL] = 0
	Total_core_cache_stats_breakdown[GLOBAL_ACC_W][SECTOR_MISS] = 0
	Total_core_cache_stats_breakdown[LOCAL_ACC_W][HIT] = 0
	Total_core_cache_stats_breakdown[LOCAL_ACC_W][HIT_RESERVED] = 0
	Total_core_cache_stats_breakdown[LOCAL_ACC_W][MISS] = 0
	Total_core_cache_stats_breakdown[LOCAL_ACC_W][RESERVATION_FAIL] = 0
	Total_core_cache_stats_breakdown[LOCAL_ACC_W][SECTOR_MISS] = 0
	Total_core_cache_stats_breakdown[L1_WRBK_ACC][HIT] = 0
	Total_core_cache_stats_breakdown[L1_WRBK_ACC][HIT_RESERVED] = 0
	Total_core_cache_stats_breakdown[L1_WRBK_ACC][MISS] = 0
	Total_core_cache_stats_breakdown[L1_WRBK_ACC][RESERVATION_FAIL] = 0
	Total_core_cache_stats_breakdown[L1_WRBK_ACC][SECTOR_MISS] = 0
	Total_core_cache_stats_breakdown[L2_WRBK_ACC][HIT] = 0
	Total_core_cache_stats_breakdown[L2_WRBK_ACC][HIT_RESERVED] = 0
	Total_core_cache_stats_breakdown[L2_WRBK_ACC][MISS] = 0
	Total_core_cache_stats_breakdown[L2_WRBK_ACC][RESERVATION_FAIL] = 0
	Total_core_cache_stats_breakdown[L2_WRBK_ACC][SECTOR_MISS] = 0
	Total_core_cache_stats_breakdown[INST_ACC_R][HIT] = 0
	Total_core_cache_stats_breakdown[INST_ACC_R][HIT_RESERVED] = 0
	Total_core_cache_stats_breakdown[INST_ACC_R][MISS] = 0
	Total_core_cache_stats_breakdown[INST_ACC_R][RESERVATION_FAIL] = 0
	Total_core_cache_stats_breakdown[INST_ACC_R][SECTOR_MISS] = 0
	Total_core_cache_stats_breakdown[L1_WR_ALLOC_R][HIT] = 0
	Total_core_cache_stats_breakdown[L1_WR_ALLOC_R][HIT_RESERVED] = 0
	Total_core_cache_stats_breakdown[L1_WR_ALLOC_R][MISS] = 0
	Total_core_cache_stats_breakdown[L1_WR_ALLOC_R][RESERVATION_FAIL] = 0
	Total_core_cache_stats_breakdown[L1_WR_ALLOC_R][SECTOR_MISS] = 0
	Total_core_cache_stats_breakdown[L2_WR_ALLOC_R][HIT] = 0
	Total_core_cache_stats_breakdown[L2_WR_ALLOC_R][HIT_RESERVED] = 0
	Total_core_cache_stats_breakdown[L2_WR_ALLOC_R][MISS] = 0
	Total_core_cache_stats_breakdown[L2_WR_ALLOC_R][RESERVATION_FAIL] = 0
	Total_core_cache_stats_breakdown[L2_WR_ALLOC_R][SECTOR_MISS] = 0
	Total_core_cache_stats_breakdown[GLOBAL_ACC_R][TOTAL_ACCESS] = 36366
	Total_core_cache_stats_breakdown[GLOBAL_ACC_W][TOTAL_ACCESS] = 1574

Total_core_cache_fail_stats:
ctas_completed 47, Shader 0 warp_id issue ditsribution:
warp_id:
0, 1, 2, 3, 4, 5, 6, 7, 
distro:
1166, 1166, 1166, 1166, 1166, 1166, 1166, 1166, 
gpgpu_n_tot_thrd_icount = 13941152
gpgpu_n_tot_w_icount = 435661
gpgpu_n_stall_shd_mem = 29778
gpgpu_n_mem_read_local = 0
gpgpu_n_mem_write_local = 0
gpgpu_n_mem_read_global = 29562
gpgpu_n_mem_write_global = 1574
gpgpu_n_mem_texture = 0
gpgpu_n_mem_const = 0
gpgpu_n_load_insn  = 229320
gpgpu_n_store_insn = 10000
gpgpu_n_shmem_insn = 1306720
gpgpu_n_sstarr_insn = 0
gpgpu_n_tex_insn = 0
gpgpu_n_const_mem_insn = 0
gpgpu_n_param_mem_insn = 84224
gpgpu_n_shmem_bkconflict = 0
gpgpu_n_cache_bkconflict = 0
gpgpu_n_intrawarp_mshr_merge = 0
gpgpu_n_cmem_portconflict = 0
gpgpu_stall_shd_mem[c_mem][resource_stall] = 0
gpgpu_stall_shd_mem[s_mem][bk_conf] = 0
gpgpu_stall_shd_mem[gl_mem][resource_stall] = 29778
gpgpu_stall_shd_mem[gl_mem][coal_stall] = 0
gpgpu_stall_shd_mem[gl_mem][data_port_stall] = 0
gpu_reg_bank_conflict_stalls = 0
Warp Occupancy Distribution:
Stall:6479	W0_Idle:444078	W0_Scoreboard:1446654	W1:0	W2:0	W3:0	W4:0	W5:0	W6:0	W7:0	W8:0	W9:0	W10:0	W11:0	W12:3219	W13:2484	W14:2484	W15:2484	W16:2484	W17:2484	W18:2484	W19:2484	W20:3035	W21:2484	W22:2484	W23:2484	W24:2484	W25:2484	W26:2484	W27:2484	W28:2484	W29:2484	W30:2484	W31:2484	W32:384695
single_issue_nums: WS0:109053	WS1:109053	WS2:109053	WS3:108502	
dual_issue_nums: WS0:0	WS1:0	WS2:0	WS3:0	
traffic_breakdown_coretomem[GLOBAL_ACC_R] = 236496 {8:29562,}
traffic_breakdown_coretomem[GLOBAL_ACC_W] = 62960 {40:1574,}
traffic_breakdown_memtocore[GLOBAL_ACC_R] = 1182480 {40:29562,}
traffic_breakdown_memtocore[GLOBAL_ACC_W] = 12592 {8:1574,}
maxmflatency = 400 
max_icnt2mem_latency = 101 
maxmrqlatency = 44 
max_icnt2sh_latency = 47 
averagemflatency = 229 
avg_icnt2mem_latency = 27 
avg_mrq_latency = 5 
avg_icnt2sh_latency = 2 
mrq_lat_table:2066 	2689 	1806 	1002 	804 	81 	0 	0 	0 	0 	0 	0 	0 	0 	0 	0 	0 	0 	0 	0 	0 	0 	0 	0 	0 	0 	0 	0 	0 	0 	0 	0 	
dq_lat_table:0 	0 	0 	0 	0 	0 	0 	0 	0 	0 	0 	0 	0 	0 	0 	0 	0 	0 	0 	0 	0 	0 	0 	0 	0 	0 	0 	0 	0 	0 	0 	0 	
mf_lat_table:0 	0 	0 	0 	0 	0 	0 	22100 	9036 	0 	0 	0 	0 	0 	0 	0 	0 	0 	0 	0 	0 	0 	0 	0 	0 	0 	0 	0 	0 	0 	0 	0 	
icnt2mem_lat_table:0 	0 	0 	0 	28029 	2517 	590 	0 	0 	0 	0 	0 	0 	0 	0 	0 	0 	0 	0 	0 	0 	0 	0 	0 	
icnt2sh_lat_table:0 	27157 	2843 	753 	346 	37 	0 	0 	0 	0 	0 	0 	0 	0 	0 	0 	0 	0 	0 	0 	0 	0 	0 	0 	
mf_lat_pw_table:0 	0 	0 	0 	0 	0 	0 	20 	5 	0 	0 	0 	0 	0 	0 	0 	0 	0 	0 	0 	0 	0 	0 	0 	0 	0 	0 	0 	0 	0 	0 	0 	
maximum concurrent accesses to same row:
dram[0]:        16        32         0         0         0         0         0         0         0         0         0         0         0         0         0         0 
dram[1]:        16        32         0         0         0         0         0         0         0         0         0         0         0         0         0         0 
dram[2]:        16        32         0         0         0         0         0         0         0         0         0         0         0         0         0         0 
dram[3]:        16        32         0         0         0         0         0         0         0         0         0         0         0         0         0         0 
dram[4]:        16        32         0         0         0         0         0         0         0         0         0         0         0         0         0         0 
dram[5]:        16        32         0         0         0         0         0         0         0         0         0         0         0         0         0         0 
dram[6]:        16        32         0         0         0         0         0         0         0         0         0         0         0         0         0         0 
dram[7]:        16        32         0         0         0         0         0         0         0         0         0         0         0         0         0         0 
dram[8]:         0         0         0         0         0         0         0         0         0         0         0         0         0         0         0         0 
dram[9]:         0         0         0         0         0         0         0         0         0         0         0         0         0         0         0         0 
dram[10]:         0         0         0         0         0         0         0         0         0         0         0         0         0         0         0         0 
dram[11]:         0         0         0         0         0         0         0         0         0         0         0         0         0         0         0         0 
dram[12]:         0         0         0         0         0         0         0         0         0         0         0         0         0         0         0         0 
dram[13]:         0         0         0         0         0         0         0         0         0         0         0         0         0         0         0         0 
dram[14]:         0         0         0         0         0         0         0         0         0         0         0         0         0         0         0         0 
dram[15]:         0         0         0         0         0         0         0         0         0         0         0         0         0         0         0         0 
dram[16]:         0         0         0         0         0         0         0         0         0         0         0         0         0         0         0         0 
dram[17]:         0         0         0         0         0         0         0         0         0         0         0         0         0         0         0         0 
dram[18]:         0         0         0         0         0         0         0         0         0         0         0         0         0         0         0         0 
dram[19]:         0         0         0         0         0         0         0         0         0         0         0         0         0         0         0         0 
dram[20]:         0         0         0         0         0         0         0         0         0         0         0         0         0         0         0         0 
dram[21]:         0         0         0         0         0         0         0         0         0         0         0         0         0         0         0         0 
dram[22]:         0         0         0         0         0         0         0         0         0         0         0         0         0         0         0         0 
dram[23]:         0         0         0         0         0         0         0         0         0         0         0         0         0         0         0         0 
maximum service time to same row:
dram[0]:     10820      9215      1484      1566      2292      2594      3822      3802      6178      5869      7385      7367      7520      8120      9304      9472 
dram[1]:     10830     10480      1505      1580      2286      2598      3812      3800      5960      6181      7287      7367      7510      8132      9305      9445 
dram[2]:     10772     10840      1498      1586      2305      2607      3879      3904      6084      6082      7401      7448      7512      7045      9308      9538 
dram[3]:     10774      9222      1507      1570      2290      2609      3886      3917      6087      6088      7407      7429      7515      7052      9311      9521 
dram[4]:     10775     10643      1491      1559      1930      2611      3805      3911      5945      5883      7280      7440      7891      8112      9719      9829 
dram[5]:     10773     10660      1489      1561      2289      2619      3894      3808      5940      5858      7414      7361      7895      8108      9336      9815 
dram[6]:     10725     10483      1497      1553      2652      2602      3815      3798      5960      5873      7191      7373      7902      8122      9723      9514 
dram[7]:     10721     10499      1487      1566      1926      2595      3802      3794      5945      5864      7285      6968      7518      8118      9312      9809 
dram[8]:         0         0         0         0         0         0         0         0         0         0         0         0         0         0         0         0 
dram[9]:         0         0         0         0         0         0         0         0         0         0         0         0         0         0         0         0 
dram[10]:         0         0         0         0         0         0         0         0         0         0         0         0         0         0         0         0 
dram[11]:         0         0         0         0         0         0         0         0         0         0         0         0         0         0         0         0 
dram[12]:         0         0         0         0         0         0         0         0         0         0         0         0         0         0         0         0 
dram[13]:         0         0         0         0         0         0         0         0         0         0         0         0         0         0         0         0 
dram[14]:         0         0         0         0         0         0         0         0         0         0         0         0         0         0         0         0 
dram[15]:         0         0         0         0         0         0         0         0         0         0         0         0         0         0         0         0 
dram[16]:         0         0         0         0         0         0         0         0         0         0         0         0         0         0         0         0 
dram[17]:         0         0         0         0         0         0         0         0         0         0         0         0         0         0         0         0 
dram[18]:         0         0         0         0         0         0         0         0         0         0         0         0         0         0         0         0 
dram[19]:         0         0         0         0         0         0         0         0         0         0         0         0         0         0         0         0 
dram[20]:         0         0         0         0         0         0         0         0         0         0         0         0         0         0         0         0 
dram[21]:         0         0         0         0         0         0         0         0         0         0         0         0         0         0         0         0 
dram[22]:         0         0         0         0         0         0         0         0         0         0         0         0         0         0         0         0 
dram[23]:         0         0         0         0         0         0         0         0         0         0         0         0         0         0         0         0 
average row accesses per activate:
dram[0]: 32.000000 48.000000 64.000000 64.000000 64.000000 64.000000 64.000000 64.000000 64.000000 64.000000 64.000000 64.000000 64.000000 64.000000 64.000000 64.000000 
dram[1]: 32.000000 48.000000 64.000000 64.000000 64.000000 64.000000 64.000000 64.000000 64.000000 64.000000 64.000000 64.000000 64.000000 64.000000 64.000000 64.000000 
dram[2]: 32.000000 48.000000 64.000000 64.000000 64.000000 64.000000 64.000000 64.000000 64.000000 64.000000 64.000000 64.000000 64.000000 64.000000 64.000000 64.000000 
dram[3]: 32.000000 48.000000 64.000000 64.000000 64.000000 64.000000 64.000000 64.000000 64.000000 64.000000 64.000000 64.000000 64.000000 64.000000 64.000000 64.000000 
dram[4]: 32.000000 48.000000 64.000000 64.000000 64.000000 64.000000 64.000000 64.000000 64.000000 64.000000 64.000000 64.000000 64.000000 64.000000 64.000000 64.000000 
dram[5]: 32.000000 48.000000 64.000000 64.000000 64.000000 64.000000 64.000000 64.000000 64.000000 64.000000 64.000000 64.000000 64.000000 64.000000 64.000000 64.000000 
dram[6]: 32.000000 48.000000 64.000000 64.000000 64.000000 64.000000 64.000000 64.000000 64.000000 64.000000 64.000000 64.000000 64.000000 64.000000 64.000000 64.000000 
dram[7]: 32.000000 48.000000 64.000000 64.000000 64.000000 64.000000 64.000000 64.000000 64.000000 64.000000 64.000000 64.000000 64.000000 64.000000 64.000000 64.000000 
dram[8]:      -nan      -nan      -nan      -nan      -nan      -nan      -nan      -nan      -nan      -nan      -nan      -nan      -nan      -nan      -nan      -nan 
dram[9]:      -nan      -nan      -nan      -nan      -nan      -nan      -nan      -nan      -nan      -nan      -nan      -nan      -nan      -nan      -nan      -nan 
dram[10]:      -nan      -nan      -nan      -nan      -nan      -nan      -nan      -nan      -nan      -nan      -nan      -nan      -nan      -nan      -nan      -nan 
dram[11]:      -nan      -nan      -nan      -nan      -nan      -nan      -nan      -nan      -nan      -nan      -nan      -nan      -nan      -nan      -nan      -nan 
dram[12]:      -nan      -nan      -nan      -nan      -nan      -nan      -nan      -nan      -nan      -nan      -nan      -nan      -nan      -nan      -nan      -nan 
dram[13]:      -nan      -nan      -nan      -nan      -nan      -nan      -nan      -nan      -nan      -nan      -nan      -nan      -nan      -nan      -nan      -nan 
dram[14]:      -nan      -nan      -nan      -nan      -nan      -nan      -nan      -nan      -nan      -nan      -nan      -nan      -nan      -nan      -nan      -nan 
dram[15]:      -nan      -nan      -nan      -nan      -nan      -nan      -nan      -nan      -nan      -nan      -nan      -nan      -nan      -nan      -nan      -nan 
dram[16]:      -nan      -nan      -nan      -nan      -nan      -nan      -nan      -nan      -nan      -nan      -nan      -nan      -nan      -nan      -nan      -nan 
dram[17]:      -nan      -nan      -nan      -nan      -nan      -nan      -nan      -nan      -nan      -nan      -nan      -nan      -nan      -nan      -nan      -nan 
dram[18]:      -nan      -nan      -nan      -nan      -nan      -nan      -nan      -nan      -nan      -nan      -nan      -nan      -nan      -nan      -nan      -nan 
dram[19]:      -nan      -nan      -nan      -nan      -nan      -nan      -nan      -nan      -nan      -nan      -nan      -nan      -nan      -nan      -nan      -nan 
dram[20]:      -nan      -nan      -nan      -nan      -nan      -nan      -nan      -nan      -nan      -nan      -nan      -nan      -nan      -nan      -nan      -nan 
dram[21]:      -nan      -nan      -nan      -nan      -nan      -nan      -nan      -nan      -nan      -nan      -nan      -nan      -nan      -nan      -nan      -nan 
dram[22]:      -nan      -nan      -nan      -nan      -nan      -nan      -nan      -nan      -nan      -nan      -nan      -nan      -nan      -nan      -nan      -nan 
dram[23]:      -nan      -nan      -nan      -nan      -nan      -nan      -nan      -nan      -nan      -nan      -nan      -nan      -nan      -nan      -nan      -nan 
average row locality = 8448/144 = 58.666668
number of total memory accesses made:
dram[0]:         0         0         0         0         0         0         0         0         0         0         0         0         0         0         0         0 
dram[1]:         0         0         0         0         0         0         0         0         0         0         0         0         0         0         0         0 
dram[2]:         0         0         0         0         0         0         0         0         0         0         0         0         0         0         0         0 
dram[3]:         0         0         0         0         0         0         0         0         0         0         0         0         0         0         0         0 
dram[4]:         0         0         0         0         0         0         0         0         0         0         0         0         0         0         0         0 
dram[5]:         0         0         0         0         0         0         0         0         0         0         0         0         0         0         0         0 
dram[6]:         0         0         0         0         0         0         0         0         0         0         0         0         0         0         0         0 
dram[7]:         0         0         0         0         0         0         0         0         0         0         0         0         0         0         0         0 
dram[8]:         0         0         0         0         0         0         0         0         0         0         0         0         0         0         0         0 
dram[9]:         0         0         0         0         0         0         0         0         0         0         0         0         0         0         0         0 
dram[10]:         0         0         0         0         0         0         0         0         0         0         0         0         0         0         0         0 
dram[11]:         0         0         0         0         0         0         0         0         0         0         0         0         0         0         0         0 
dram[12]:         0         0         0         0         0         0         0         0         0         0         0         0         0         0         0         0 
dram[13]:         0         0         0         0         0         0         0         0         0         0         0         0         0         0         0         0 
dram[14]:         0         0         0         0         0         0         0         0         0         0         0         0         0         0         0         0 
dram[15]:         0         0         0         0         0         0         0         0         0         0         0         0         0         0         0         0 
dram[16]:         0         0         0         0         0         0         0         0         0         0         0         0         0         0         0         0 
dram[17]:         0         0         0         0         0         0         0         0         0         0         0         0         0         0         0         0 
dram[18]:         0         0         0         0         0         0         0         0         0         0         0         0         0         0         0         0 
dram[19]:         0         0         0         0         0         0         0         0         0         0         0         0         0         0         0         0 
dram[20]:         0         0         0         0         0         0         0         0         0         0         0         0         0         0         0         0 
dram[21]:         0         0         0         0         0         0         0         0         0         0         0         0         0         0         0         0 
dram[22]:         0         0         0         0         0         0         0         0         0         0         0         0         0         0         0         0 
dram[23]:         0         0         0         0         0         0         0         0         0         0         0         0         0         0         0         0 
total accesses: 0
min_bank_accesses = 0!
min_chip_accesses = 0!
number of total read accesses:
dram[0]:        80        80        64        64        64        64        64        64        64        64        64        64        64        64        64        64 
dram[1]:        80        80        64        64        64        64        64        64        64        64        64        64        64        64        64        64 
dram[2]:        80        80        64        64        64        64        64        64        64        64        64        64        64        64        64        64 
dram[3]:        80        80        64        64        64        64        64        64        64        64        64        64        64        64        64        64 
dram[4]:        80        80        64        64        64        64        64        64        64        64        64        64        64        64        64        64 
dram[5]:        80        80        64        64        64        64        64        64        64        64        64        64        64        64        64        64 
dram[6]:        80        80        64        64        64        64        64        64        64        64        64        64        64        64        64        64 
dram[7]:        80        80        64        64        64        64        64        64        64        64        64        64        64        64        64        64 
dram[8]:         0         0         0         0         0         0         0         0         0         0         0         0         0         0         0         0 
dram[9]:         0         0         0         0         0         0         0         0         0         0         0         0         0         0         0         0 
dram[10]:         0         0         0         0         0         0         0         0         0         0         0         0         0         0         0         0 
dram[11]:         0         0         0         0         0         0         0         0         0         0         0         0         0         0         0         0 
dram[12]:         0         0         0         0         0         0         0         0         0         0         0         0         0         0         0         0 
dram[13]:         0         0         0         0         0         0         0         0         0         0         0         0         0         0         0         0 
dram[14]:         0         0         0         0         0         0         0         0         0         0         0         0         0         0         0         0 
dram[15]:         0         0         0         0         0         0         0         0         0         0         0         0         0         0         0         0 
dram[16]:         0         0         0         0         0         0         0         0         0         0         0         0         0         0         0         0 
dram[17]:         0         0         0         0         0         0         0         0         0         0         0         0         0         0         0         0 
dram[18]:         0         0         0         0         0         0         0         0         0         0         0         0         0         0         0         0 
dram[19]:         0         0         0         0         0         0         0         0         0         0         0         0         0         0         0         0 
dram[20]:         0         0         0         0         0         0         0         0         0         0         0         0         0         0         0         0 
dram[21]:         0         0         0         0         0         0         0         0         0         0         0         0         0         0         0         0 
dram[22]:         0         0         0         0         0         0         0         0         0         0         0         0         0         0         0         0 
dram[23]:         0         0         0         0         0         0         0         0         0         0         0         0         0         0         0         0 
total dram reads = 8448
min_bank_accesses = 0!
min_chip_accesses = 0!
number of total write accesses:
dram[0]:         0         0         0         0         0         0         0         0         0         0         0         0         0         0         0         0 
dram[1]:         0         0         0         0         0         0         0         0         0         0         0         0         0         0         0         0 
dram[2]:         0         0         0         0         0         0         0         0         0         0         0         0         0         0         0         0 
dram[3]:         0         0         0         0         0         0         0         0         0         0         0         0         0         0         0         0 
dram[4]:         0         0         0         0         0         0         0         0         0         0         0         0         0         0         0         0 
dram[5]:         0         0         0         0         0         0         0         0         0         0         0         0         0         0         0         0 
dram[6]:         0         0         0         0         0         0         0         0         0         0         0         0         0         0         0         0 
dram[7]:         0         0         0         0         0         0         0         0         0         0         0         0         0         0         0         0 
dram[8]:         0         0         0         0         0         0         0         0         0         0         0         0         0         0         0         0 
dram[9]:         0         0         0         0         0         0         0         0         0         0         0         0         0         0         0         0 
dram[10]:         0         0         0         0         0         0         0         0         0         0         0         0         0         0         0         0 
dram[11]:         0         0         0         0         0         0         0         0         0         0         0         0         0         0         0         0 
dram[12]:         0         0         0         0         0         0         0         0         0         0         0         0         0         0         0         0 
dram[13]:         0         0         0         0         0         0         0         0         0         0         0         0         0         0         0         0 
dram[14]:         0         0         0         0         0         0         0         0         0         0         0         0         0         0         0         0 
dram[15]:         0         0         0         0         0         0         0         0         0         0         0         0         0         0         0         0 
dram[16]:         0         0         0         0         0         0         0         0         0         0         0         0         0         0         0         0 
dram[17]:         0         0         0         0         0         0         0         0         0         0         0         0         0         0         0         0 
dram[18]:         0         0         0         0         0         0         0         0         0         0         0         0         0         0         0         0 
dram[19]:         0         0         0         0         0         0         0         0         0         0         0         0         0         0         0         0 
dram[20]:         0         0         0         0         0         0         0         0         0         0         0         0         0         0         0         0 
dram[21]:         0         0         0         0         0         0         0         0         0         0         0         0         0         0         0         0 
dram[22]:         0         0         0         0         0         0         0         0         0         0         0         0         0         0         0         0 
dram[23]:         0         0         0         0         0         0         0         0         0         0         0         0         0         0         0         0 
total dram writes = 0
min_bank_accesses = 0!
min_chip_accesses = 0!
average mf latency per bank:
dram[0]:        633       641       555       502       474       434       486       432       459       475       428       439       439       446       432       441
dram[1]:        699       617       487       577       423       481       427       471       471       457       453       423       437       430       447       424
dram[2]:        681       613       499       538       458       466       480       493       497       425       450       438       431       448       433       439
dram[3]:        701       659       532       473       511       438       462       478       429       479       439       447       432       444       437       422
dram[4]:        661       610       537       516       501       458       449       467       425       455       427       440       443       446       431       426
dram[5]:        655       639       499       516       447       484       479       469       472       444       445       446       435       436       430       453
dram[6]:        685       640       510       548       444       509       431       479       476       444       446       434       441       432       436       427
dram[7]:        667       651       545       488       486       449       491       450       443       479       429       448       418       433       429       451
dram[8]:     none      none      none      none      none      none      none      none      none      none      none      none      none      none      none      none  
dram[9]:     none      none      none      none      none      none      none      none      none      none      none      none      none      none      none      none  
dram[10]:     none      none      none      none      none      none      none      none      none      none      none      none      none      none      none      none  
dram[11]:     none      none      none      none      none      none      none      none      none      none      none      none      none      none      none      none  
dram[12]:     none      none      none      none      none      none      none      none      none      none      none      none      none      none      none      none  
dram[13]:     none      none      none      none      none      none      none      none      none      none      none      none      none      none      none      none  
dram[14]:     none      none      none      none      none      none      none      none      none      none      none      none      none      none      none      none  
dram[15]:     none      none      none      none      none      none      none      none      none      none      none      none      none      none      none      none  
dram[16]:     none      none      none      none      none      none      none      none      none      none      none      none      none      none      none      none  
dram[17]:     none      none      none      none      none      none      none      none      none      none      none      none      none      none      none      none  
dram[18]:     none      none      none      none      none      none      none      none      none      none      none      none      none      none      none      none  
dram[19]:     none      none      none      none      none      none      none      none      none      none      none      none      none      none      none      none  
dram[20]:     none      none      none      none      none      none      none      none      none      none      none      none      none      none      none      none  
dram[21]:     none      none      none      none      none      none      none      none      none      none      none      none      none      none      none      none  
dram[22]:     none      none      none      none      none      none      none      none      none      none      none      none      none      none      none      none  
dram[23]:     none      none      none      none      none      none      none      none      none      none      none      none      none      none      none      none  
maximum mf latency per bank:
dram[0]:        368       387       348       360       338       327       340       332       334       344       339       329       347       342       329       332
dram[1]:        370       388       349       356       337       342       340       338       335       340       347       332       339       340       336       335
dram[2]:        354       364       351       356       350       335       335       344       350       341       335       340       330       335       334       332
dram[3]:        354       354       361       361       363       337       331       351       335       343       338       340       334       332       327       335
dram[4]:        344       379       346       358       352       339       329       344       333       330       336       338       343       357       329       336
dram[5]:        352       389       356       359       361       345       336       337       335       350       339       341       334       336       334       342
dram[6]:        373       392       371       364       338       336       335       334       336       340       332       332       341       336       329       335
dram[7]:        356       400       357       383       343       339       344       336       342       338       330       344       329       337       336       337
dram[8]:        234       252       217       198       192       206       200       194       194       190       193       192       192       189       197       193
dram[9]:        253       263       221       203       189       199       200       195       191       190       195       192       191       189       194       194
dram[10]:        252       246       206       202       195       196       191       191       207       196       192       207       192       190       193       205
dram[11]:        235       216       212       209       196       198       194       194       198       192       193       192       192       190       193       194
dram[12]:        256       241       241       207       195       197       192       197       213       199       189       189       196       195       193       193
dram[13]:        273       248       212       201       194       196       199       194       214       198       188       188       191       194       194       194
dram[14]:        246       223       211       214       192       195       193       192       208       195       192       187       190       191       192       194
dram[15]:        265       227       210       199       188       194       194       192       203       195       188       189       193       197       192       193
dram[16]:        267       237       204       245       199       207       191       189       190       192       195       193       207       194       196       195
dram[17]:        251       229       205       253       195       215       190       191       191       199       194       194       193       194       196       201
dram[18]:        232       259       202       220       202       223       191       192       192       195       193       192       213       196       199       205
dram[19]:        252       265       195       254       200       206       190       193       191       197       193       193       198       193       199       216
dram[20]:        245       228       197       197       193       208       191       189       192       198       201       192       219       198       187       191
dram[21]:        217       258       196       211       193       199       189       190       193       192       196       195       209       198       195       193
dram[22]:        238       262       202       218       194       196       191       189       191       193       195       191       207       191       197       191
dram[23]:        234       229       204       245       191       202       190       190       192       197       195       191       193       195       198       198
Memory Partition 0: 
Cache L2_bank_000:
MSHR contents

Cache L2_bank_001:
MSHR contents

In Dram Latency Queue (total = 0): 
DRAM[0]: 16 bks, busW=16 BL=2 CL=12, tRRD=3 tCCD=1, tRCD=12 tRAS=28 tRP=12 tRC=40
n_cmd=9098 n_nop=8023 n_act=18 n_pre=2 n_ref_event=94419066481312 n_req=1056 n_rd=1056 n_rd_L2_A=0 n_write=0 n_wr_bk=0 bw_util=0.1161
n_activity=3166 dram_eff=0.3335
bk0: 64a 9024i bk1: 96a 8984i bk2: 64a 9040i bk3: 64a 9035i bk4: 64a 9039i bk5: 64a 9040i bk6: 64a 9039i bk7: 64a 9034i bk8: 64a 9034i bk9: 64a 9032i bk10: 64a 9044i bk11: 64a 9042i bk12: 64a 9044i bk13: 64a 9036i bk14: 64a 9038i bk15: 64a 9042i 

------------------------------------------------------------------------

Row_Buffer_Locality = 0.982955
Row_Buffer_Locality_read = 0.982955
Row_Buffer_Locality_write = -nan
Bank_Level_Parallism = 1.096042
Bank_Level_Parallism_Col = 0.673481
Bank_Level_Parallism_Ready = 1.035985
write_to_read_ratio_blp_rw_average = 0.000000
GrpLevelPara = 0.000000 

BW Util details:
bwutil = 0.116069 
total_CMD = 9098 
util_bw = 1056 
Wasted_Col = 815 
Wasted_Row = 24 
Idle = 7203 

BW Util Bottlenecks: 
RCDc_limit = 188 
RCDWRc_limit = 0 
WTRc_limit = 0 
RTWc_limit = 0 
CCDLc_limit = 650 
rwq = 0 
CCDLc_limit_alone = 650 
WTRc_limit_alone = 0 
RTWc_limit_alone = 0 

Commands details: 
total_CMD = 9098 
n_nop = 8023 
Read = 1056 
Write = 0 
L2_Alloc = 0 
L2_WB = 0 
n_act = 18 
n_pre = 2 
n_ref = 94419066481312 
n_req = 1056 
total_req = 1056 

Dual Bus Interface Util: 
issued_total_row = 20 
issued_total_col = 1056 
Row_Bus_Util =  0.002198 
CoL_Bus_Util = 0.116069 
Either_Row_CoL_Bus_Util = 0.118158 
Issued_on_Two_Bus_Simul_Util = 0.000110 
issued_two_Eff = 0.000930 
queue_avg = 0.291273 


dram_util_bins: 0 0 0 0 0 0 0 0 0 0
dram_eff_bins: 0 0 0 0 0 0 0 0 0 0
mrqq: max=8 avg=0.291273
Memory Partition 1: 
Cache L2_bank_002:
MSHR contents

Cache L2_bank_003:
MSHR contents

In Dram Latency Queue (total = 0): 
DRAM[1]: 16 bks, busW=16 BL=2 CL=12, tRRD=3 tCCD=1, tRCD=12 tRAS=28 tRP=12 tRC=40
n_cmd=9098 n_nop=8023 n_act=18 n_pre=2 n_ref_event=0 n_req=1056 n_rd=1056 n_rd_L2_A=0 n_write=0 n_wr_bk=0 bw_util=0.1161
n_activity=3184 dram_eff=0.3317
bk0: 64a 9015i bk1: 96a 8986i bk2: 64a 9038i bk3: 64a 9030i bk4: 64a 9037i bk5: 64a 9029i bk6: 64a 9038i bk7: 64a 9033i bk8: 64a 9035i bk9: 64a 9029i bk10: 64a 9038i bk11: 64a 9046i bk12: 64a 9039i bk13: 64a 9038i bk14: 64a 9039i bk15: 64a 9038i 

------------------------------------------------------------------------

Row_Buffer_Locality = 0.982955
[...]
Bank_Level_Parallism_Col = 1.647059
Bank_Level_Parallism_Ready = 1.000000
write_to_read_ratio_blp_rw_average = 0.000000
GrpLevelPara = 1.647059 

BW Util details:
bwutil = 0.000111 
total_CMD = 45137 
util_bw = 5 
Wasted_Col = 13 
Wasted_Row = 0 
Idle = 45119 

BW Util Bottlenecks: 
RCDc_limit = 22 
RCDWRc_limit = 0 
WTRc_limit = 0 
RTWc_limit = 0 
CCDLc_limit = 1 
rwq = 0 
CCDLc_limit_alone = 1 
WTRc_limit_alone = 0 
RTWc_limit_alone = 0 

Commands details: 
total_CMD = 45137 
n_nop = 45130 
Read = 5 
Write = 0 
L2_Alloc = 0 
L2_WB = 0 
n_act = 2 
n_pre = 0 
n_ref = 0 
n_req = 5 
total_req = 5 

Dual Bus Interface Util: 
issued_total_row = 2 
issued_total_col = 5 
Row_Bus_Util =  0.000044 
CoL_Bus_Util = 0.000111 
Either_Row_CoL_Bus_Util = 0.000155 
Issued_on_Two_Bus_Simul_Util = 0.000000 
issued_two_Eff = 0.000000 
queue_avg = 0.000066 


dram_util_bins: 0 0 0 0 0 0 0 0 0 0
dram_eff_bins: 0 0 0 0 0 0 0 0 0 0
mrqq: max=1 avg=6.64643e-05
Memory Partition 19: 
Cache L2_bank_038:
MSHR contents

Cache L2_bank_039:
MSHR contents

In Dram Latency Queue (total = 0): 
DRAM[19]: 16 bks, busW=16 BL=2 CL=12, tRRD=3 tCCD=1, tRCD=12 tRAS=28 tRP=12 tRC=40
n_cmd=45137 n_nop=45131 n_act=2 n_pre=0 n_ref_event=0 n_req=4 n_rd=4 n_rd_L2_A=0 n_write=0 n_wr_bk=0 bw_util=8.862e-05
n_activity=80 dram_eff=0.05
bk0: 2a 45125i bk1: 2a 45124i bk2: 0a 45137i bk3: 0a 45137i bk4: 0a 45137i bk5: 0a 45137i bk6: 0a 45137i bk7: 0a 45137i bk8: 0a 45137i bk9: 0a 45137i bk10: 0a 45137i bk11: 0a 45137i bk12: 0a 45137i bk13: 0a 45137i bk14: 0a 45137i bk15: 0a 45137i 

------------------------------------------------------------------------

Row_Buffer_Locality = 0.500000
Row_Buffer_Locality_read = 0.500000
Row_Buffer_Locality_write = -nan
Bank_Level_Parallism = 1.000000
Bank_Level_Parallism_Col = 1.000000
Bank_Level_Parallism_Ready = 1.000000
write_to_read_ratio_blp_rw_average = 0.000000
GrpLevelPara = 1.000000 

BW Util details:
bwutil = 0.000089 
total_CMD = 45137 
util_bw = 4 
Wasted_Col = 25 
Wasted_Row = 0 
Idle = 45108 

BW Util Bottlenecks: 
RCDc_limit = 24 
RCDWRc_limit = 0 
WTRc_limit = 0 
RTWc_limit = 0 
CCDLc_limit = 1 
rwq = 0 
CCDLc_limit_alone = 1 
WTRc_limit_alone = 0 
RTWc_limit_alone = 0 

Commands details: 
total_CMD = 45137 
n_nop = 45131 
Read = 4 
Write = 0 
L2_Alloc = 0 
L2_WB = 0 
n_act = 2 
n_pre = 0 
n_ref = 0 
n_req = 4 
total_req = 4 

Dual Bus Interface Util: 
issued_total_row = 2 
issued_total_col = 4 
Row_Bus_Util =  0.000044 
CoL_Bus_Util = 0.000089 
Either_Row_CoL_Bus_Util = 0.000133 
Issued_on_Two_Bus_Simul_Util = 0.000000 
issued_two_Eff = 0.000000 
queue_avg = 0.000222 


dram_util_bins: 0 0 0 0 0 0 0 0 0 0
dram_eff_bins: 0 0 0 0 0 0 0 0 0 0
mrqq: max=1 avg=0.000221548
Memory Partition 20: 
Cache L2_bank_040:
MSHR contents

Cache L2_bank_041:
MSHR contents

In Dram Latency Queue (total = 0): 
DRAM[20]: 16 bks, busW=16 BL=2 CL=12, tRRD=3 tCCD=1, tRCD=12 tRAS=28 tRP=12 tRC=40
n_cmd=45137 n_nop=45131 n_act=2 n_pre=0 n_ref_event=0 n_req=4 n_rd=4 n_rd_L2_A=0 n_write=0 n_wr_bk=0 bw_util=8.862e-05
n_activity=43 dram_eff=0.09302
bk0: 2a 45124i bk1: 2a 45124i bk2: 0a 45137i bk3: 0a 45137i bk4: 0a 45137i bk5: 0a 45137i bk6: 0a 45137i bk7: 0a 45137i bk8: 0a 45137i bk9: 0a 45137i bk10: 0a 45137i bk11: 0a 45137i bk12: 0a 45137i bk13: 0a 45137i bk14: 0a 45137i bk15: 0a 45137i 

------------------------------------------------------------------------

Row_Buffer_Locality = 0.500000
Row_Buffer_Locality_read = 0.500000
Row_Buffer_Locality_write = -nan
Bank_Level_Parallism = 1.666667
Bank_Level_Parallism_Col = 1.647059
Bank_Level_Parallism_Ready = 1.000000
write_to_read_ratio_blp_rw_average = 0.000000
GrpLevelPara = 1.647059 

BW Util details:
bwutil = 0.000089 
total_CMD = 45137 
util_bw = 4 
Wasted_Col = 14 
Wasted_Row = 0 
Idle = 45119 

BW Util Bottlenecks: 
RCDc_limit = 22 
RCDWRc_limit = 0 
WTRc_limit = 0 
RTWc_limit = 0 
CCDLc_limit = 2 
rwq = 0 
CCDLc_limit_alone = 2 
WTRc_limit_alone = 0 
RTWc_limit_alone = 0 

Commands details: 
total_CMD = 45137 
n_nop = 45131 
Read = 4 
Write = 0 
L2_Alloc = 0 
L2_WB = 0 
n_act = 2 
n_pre = 0 
n_ref = 0 
n_req = 4 
total_req = 4 

Dual Bus Interface Util: 
issued_total_row = 2 
issued_total_col = 4 
Row_Bus_Util =  0.000044 
CoL_Bus_Util = 0.000089 
Either_Row_CoL_Bus_Util = 0.000133 
Issued_on_Two_Bus_Simul_Util = 0.000000 
issued_two_Eff = 0.000000 
queue_avg = 0.000266 


dram_util_bins: 0 0 0 0 0 0 0 0 0 0
dram_eff_bins: 0 0 0 0 0 0 0 0 0 0
mrqq: max=2 avg=0.000265857
Memory Partition 21: 
Cache L2_bank_042:
MSHR contents

Cache L2_bank_043:
MSHR contents

In Dram Latency Queue (total = 0): 
DRAM[21]: 16 bks, busW=16 BL=2 CL=12, tRRD=3 tCCD=1, tRCD=12 tRAS=28 tRP=12 tRC=40
n_cmd=45137 n_nop=45131 n_act=2 n_pre=0 n_ref_event=0 n_req=4 n_rd=4 n_rd_L2_A=0 n_write=0 n_wr_bk=0 bw_util=8.862e-05
n_activity=64 dram_eff=0.0625
bk0: 2a 45125i bk1: 2a 45124i bk2: 0a 45137i bk3: 0a 45137i bk4: 0a 45137i bk5: 0a 45137i bk6: 0a 45137i bk7: 0a 45137i bk8: 0a 45137i bk9: 0a 45137i bk10: 0a 45137i bk11: 0a 45137i bk12: 0a 45137i bk13: 0a 45137i bk14: 0a 45137i bk15: 0a 45137i 

------------------------------------------------------------------------

Row_Buffer_Locality = 0.500000
Row_Buffer_Locality_read = 0.500000
Row_Buffer_Locality_write = -nan
Bank_Level_Parallism = 1.000000
Bank_Level_Parallism_Col = 1.000000
Bank_Level_Parallism_Ready = 1.000000
write_to_read_ratio_blp_rw_average = 0.000000
GrpLevelPara = 1.000000 

BW Util details:
bwutil = 0.000089 
total_CMD = 45137 
util_bw = 4 
Wasted_Col = 25 
Wasted_Row = 0 
Idle = 45108 

BW Util Bottlenecks: 
RCDc_limit = 24 
RCDWRc_limit = 0 
WTRc_limit = 0 
RTWc_limit = 0 
CCDLc_limit = 1 
rwq = 0 
CCDLc_limit_alone = 1 
WTRc_limit_alone = 0 
RTWc_limit_alone = 0 

Commands details: 
total_CMD = 45137 
n_nop = 45131 
Read = 4 
Write = 0 
L2_Alloc = 0 
L2_WB = 0 
n_act = 2 
n_pre = 0 
n_ref = 0 
n_req = 4 
total_req = 4 

Dual Bus Interface Util: 
issued_total_row = 2 
issued_total_col = 4 
Row_Bus_Util =  0.000044 
CoL_Bus_Util = 0.000089 
Either_Row_CoL_Bus_Util = 0.000133 
Issued_on_Two_Bus_Simul_Util = 0.000000 
issued_two_Eff = 0.000000 
queue_avg = 0.000089 


dram_util_bins: 0 0 0 0 0 0 0 0 0 0
dram_eff_bins: 0 0 0 0 0 0 0 0 0 0
mrqq: max=1 avg=8.86191e-05
Memory Partition 22: 
Cache L2_bank_044:
MSHR contents

Cache L2_bank_045:
MSHR contents

In Dram Latency Queue (total = 0): 
DRAM[22]: 16 bks, busW=16 BL=2 CL=12, tRRD=3 tCCD=1, tRCD=12 tRAS=28 tRP=12 tRC=40
n_cmd=45137 n_nop=45131 n_act=2 n_pre=0 n_ref_event=0 n_req=5 n_rd=5 n_rd_L2_A=0 n_write=0 n_wr_bk=0 bw_util=0.0001108
n_activity=74 dram_eff=0.06757
bk0: 3a 45125i bk1: 2a 45125i bk2: 0a 45137i bk3: 0a 45137i bk4: 0a 45137i bk5: 0a 45137i bk6: 0a 45137i bk7: 0a 45137i bk8: 0a 45137i bk9: 0a 45137i bk10: 0a 45137i bk11: 0a 45137i bk12: 0a 45137i bk13: 0a 45137i bk14: 0a 45137i bk15: 0a 45137i 

------------------------------------------------------------------------

Row_Buffer_Locality = 0.600000
Row_Buffer_Locality_read = 0.600000
Row_Buffer_Locality_write = -nan
Bank_Level_Parallism = 1.074074
Bank_Level_Parallism_Col = 1.038462
Bank_Level_Parallism_Ready = 1.000000
write_to_read_ratio_blp_rw_average = 0.000000
GrpLevelPara = 1.038462 

BW Util details:
bwutil = 0.000111 
total_CMD = 45137 
util_bw = 5 
Wasted_Col = 22 
Wasted_Row = 0 
Idle = 45110 

BW Util Bottlenecks: 
RCDc_limit = 22 
RCDWRc_limit = 0 
WTRc_limit = 0 
RTWc_limit = 0 
CCDLc_limit = 0 
rwq = 0 
CCDLc_limit_alone = 0 
WTRc_limit_alone = 0 
RTWc_limit_alone = 0 

Commands details: 
total_CMD = 45137 
n_nop = 45131 
Read = 5 
Write = 0 
L2_Alloc = 0 
L2_WB = 0 
n_act = 2 
n_pre = 0 
n_ref = 0 
n_req = 5 
total_req = 5 

Dual Bus Interface Util: 
issued_total_row = 2 
issued_total_col = 5 
Row_Bus_Util =  0.000044 
CoL_Bus_Util = 0.000111 
Either_Row_CoL_Bus_Util = 0.000133 
Issued_on_Two_Bus_Simul_Util = 0.000022 
issued_two_Eff = 0.166667 
queue_avg = 0.000000 


dram_util_bins: 0 0 0 0 0 0 0 0 0 0
dram_eff_bins: 0 0 0 0 0 0 0 0 0 0
mrqq: max=0 avg=0
Memory Partition 23: 
Cache L2_bank_046:
MSHR contents

Cache L2_bank_047:
MSHR contents

In Dram Latency Queue (total = 0): 
DRAM[23]: 16 bks, busW=16 BL=2 CL=12, tRRD=3 tCCD=1, tRCD=12 tRAS=28 tRP=12 tRC=40
n_cmd=45137 n_nop=45131 n_act=2 n_pre=0 n_ref_event=0 n_req=4 n_rd=4 n_rd_L2_A=0 n_write=0 n_wr_bk=0 bw_util=8.862e-05
n_activity=50 dram_eff=0.08
bk0: 2a 45124i bk1: 2a 45124i bk2: 0a 45137i bk3: 0a 45137i bk4: 0a 45137i bk5: 0a 45137i bk6: 0a 45137i bk7: 0a 45137i bk8: 0a 45137i bk9: 0a 45137i bk10: 0a 45137i bk11: 0a 45137i bk12: 0a 45137i bk13: 0a 45137i bk14: 0a 45137i bk15: 0a 45137i 

------------------------------------------------------------------------

Row_Buffer_Locality = 0.500000
Row_Buffer_Locality_read = 0.500000
Row_Buffer_Locality_write = -nan
Bank_Level_Parallism = 1.200000
Bank_Level_Parallism_Col = 1.166667
Bank_Level_Parallism_Ready = 1.000000
write_to_read_ratio_blp_rw_average = 0.000000
GrpLevelPara = 1.166667 

BW Util details:
bwutil = 0.000089 
total_CMD = 45137 
util_bw = 4 
Wasted_Col = 21 
Wasted_Row = 0 
Idle = 45112 

BW Util Bottlenecks: 
RCDc_limit = 22 
RCDWRc_limit = 0 
WTRc_limit = 0 
RTWc_limit = 0 
CCDLc_limit = 2 
rwq = 0 
CCDLc_limit_alone = 2 
WTRc_limit_alone = 0 
RTWc_limit_alone = 0 

Commands details: 
total_CMD = 45137 
n_nop = 45131 
Read = 4 
Write = 0 
L2_Alloc = 0 
L2_WB = 0 
n_act = 2 
n_pre = 0 
n_ref = 0 
n_req = 4 
total_req = 4 

Dual Bus Interface Util: 
issued_total_row = 2 
issued_total_col = 4 
Row_Bus_Util =  0.000044 
CoL_Bus_Util = 0.000089 
Either_Row_CoL_Bus_Util = 0.000133 
Issued_on_Two_Bus_Simul_Util = 0.000000 
issued_two_Eff = 0.000000 
queue_avg = 0.000089 


dram_util_bins: 0 0 0 0 0 0 0 0 0 0
dram_eff_bins: 0 0 0 0 0 0 0 0 0 0
mrqq: max=1 avg=8.86191e-05

========= L2 cache stats =========
L2_cache_bank[0]: Access = 5164, Miss = 2768, Miss_rate = 0.536, Pending_hits = 149, Reservation_fails = 0
L2_cache_bank[1]: Access = 4348, Miss = 2560, Miss_rate = 0.589, Pending_hits = 267, Reservation_fails = 0
L2_cache_bank[2]: Access = 5195, Miss = 2764, Miss_rate = 0.532, Pending_hits = 178, Reservation_fails = 0
L2_cache_bank[3]: Access = 4361, Miss = 2560, Miss_rate = 0.587, Pending_hits = 248, Reservation_fails = 0
L2_cache_bank[4]: Access = 5192, Miss = 2766, Miss_rate = 0.533, Pending_hits = 203, Reservation_fails = 0
L2_cache_bank[5]: Access = 4398, Miss = 2560, Miss_rate = 0.582, Pending_hits = 260, Reservation_fails = 0
L2_cache_bank[6]: Access = 5168, Miss = 2766, Miss_rate = 0.535, Pending_hits = 168, Reservation_fails = 0
L2_cache_bank[7]: Access = 4394, Miss = 2560, Miss_rate = 0.583, Pending_hits = 272, Reservation_fails = 0
L2_cache_bank[8]: Access = 5160, Miss = 2764, Miss_rate = 0.536, Pending_hits = 175, Reservation_fails = 0
L2_cache_bank[9]: Access = 4349, Miss = 2560, Miss_rate = 0.589, Pending_hits = 211, Reservation_fails = 0
L2_cache_bank[10]: Access = 5168, Miss = 2766, Miss_rate = 0.535, Pending_hits = 159, Reservation_fails = 0
L2_cache_bank[11]: Access = 4392, Miss = 2560, Miss_rate = 0.583, Pending_hits = 261, Reservation_fails = 0
L2_cache_bank[12]: Access = 5183, Miss = 2762, Miss_rate = 0.533, Pending_hits = 161, Reservation_fails = 0
L2_cache_bank[13]: Access = 4421, Miss = 2560, Miss_rate = 0.579, Pending_hits = 242, Reservation_fails = 0
L2_cache_bank[14]: Access = 5150, Miss = 2756, Miss_rate = 0.535, Pending_hits = 151, Reservation_fails = 0
L2_cache_bank[15]: Access = 4385, Miss = 2560, Miss_rate = 0.584, Pending_hits = 230, Reservation_fails = 0
L2_cache_bank[16]: Access = 2712, Miss = 84, Miss_rate = 0.031, Pending_hits = 4, Reservation_fails = 0
L2_cache_bank[17]: Access = 2208, Miss = 0, Miss_rate = 0.000, Pending_hits = 0, Reservation_fails = 0
L2_cache_bank[18]: Access = 2662, Miss = 74, Miss_rate = 0.028, Pending_hits = 6, Reservation_fails = 0
L2_cache_bank[19]: Access = 2219, Miss = 0, Miss_rate = 0.000, Pending_hits = 0, Reservation_fails = 0
L2_cache_bank[20]: Access = 2717, Miss = 86, Miss_rate = 0.032, Pending_hits = 4, Reservation_fails = 0
L2_cache_bank[21]: Access = 2176, Miss = 0, Miss_rate = 0.000, Pending_hits = 0, Reservation_fails = 0
L2_cache_bank[22]: Access = 2747, Miss = 100, Miss_rate = 0.036, Pending_hits = 5, Reservation_fails = 0
L2_cache_bank[23]: Access = 2204, Miss = 0, Miss_rate = 0.000, Pending_hits = 0, Reservation_fails = 0
L2_cache_bank[24]: Access = 2728, Miss = 74, Miss_rate = 0.027, Pending_hits = 2, Reservation_fails = 0
L2_cache_bank[25]: Access = 2202, Miss = 0, Miss_rate = 0.000, Pending_hits = 0, Reservation_fails = 0
L2_cache_bank[26]: Access = 2712, Miss = 74, Miss_rate = 0.027, Pending_hits = 5, Reservation_fails = 0
L2_cache_bank[27]: Access = 2213, Miss = 0, Miss_rate = 0.000, Pending_hits = 0, Reservation_fails = 0
L2_cache_bank[28]: Access = 2718, Miss = 72, Miss_rate = 0.026, Pending_hits = 5, Reservation_fails = 0
L2_cache_bank[29]: Access = 2210, Miss = 0, Miss_rate = 0.000, Pending_hits = 0, Reservation_fails = 0
L2_cache_bank[30]: Access = 2712, Miss = 72, Miss_rate = 0.027, Pending_hits = 1, Reservation_fails = 0
L2_cache_bank[31]: Access = 2166, Miss = 0, Miss_rate = 0.000, Pending_hits = 0, Reservation_fails = 0
L2_cache_bank[32]: Access = 2606, Miss = 24, Miss_rate = 0.009, Pending_hits = 0, Reservation_fails = 0
L2_cache_bank[33]: Access = 2211, Miss = 0, Miss_rate = 0.000, Pending_hits = 0, Reservation_fails = 0
L2_cache_bank[34]: Access = 2569, Miss = 24, Miss_rate = 0.009, Pending_hits = 0, Reservation_fails = 0
L2_cache_bank[35]: Access = 2181, Miss = 0, Miss_rate = 0.000, Pending_hits = 0, Reservation_fails = 0
L2_cache_bank[36]: Access = 2589, Miss = 26, Miss_rate = 0.010, Pending_hits = 3, Reservation_fails = 0
L2_cache_bank[37]: Access = 2184, Miss = 0, Miss_rate = 0.000, Pending_hits = 0, Reservation_fails = 0
L2_cache_bank[38]: Access = 2590, Miss = 24, Miss_rate = 0.009, Pending_hits = 1, Reservation_fails = 0
L2_cache_bank[39]: Access = 2177, Miss = 0, Miss_rate = 0.000, Pending_hits = 0, Reservation_fails = 0
L2_cache_bank[40]: Access = 2633, Miss = 24, Miss_rate = 0.009, Pending_hits = 1, Reservation_fails = 0
L2_cache_bank[41]: Access = 2212, Miss = 0, Miss_rate = 0.000, Pending_hits = 0, Reservation_fails = 0
L2_cache_bank[42]: Access = 2580, Miss = 24, Miss_rate = 0.009, Pending_hits = 2, Reservation_fails = 0
L2_cache_bank[43]: Access = 2202, Miss = 0, Miss_rate = 0.000, Pending_hits = 0, Reservation_fails = 0
L2_cache_bank[44]: Access = 2580, Miss = 26, Miss_rate = 0.010, Pending_hits = 2, Reservation_fails = 0
L2_cache_bank[45]: Access = 2173, Miss = 0, Miss_rate = 0.000, Pending_hits = 0, Reservation_fails = 0
L2_cache_bank[46]: Access = 2608, Miss = 24, Miss_rate = 0.009, Pending_hits = 2, Reservation_fails = 0
L2_cache_bank[47]: Access = 2180, Miss = 0, Miss_rate = 0.000, Pending_hits = 0, Reservation_fails = 0
L2_total_cache_accesses = 154009
L2_total_cache_misses = 43424
L2_total_cache_miss_rate = 0.2820
L2_total_cache_pending_hits = 3378
L2_total_cache_reservation_fails = 0
L2_total_cache_breakdown:
	L2_cache_stats_breakdown[GLOBAL_ACC_R][HIT] = 100946
	L2_cache_stats_breakdown[GLOBAL_ACC_R][HIT_RESERVED] = 3378
	L2_cache_stats_breakdown[GLOBAL_ACC_R][MISS] = 10382
	L2_cache_stats_breakdown[GLOBAL_ACC_R][RESERVATION_FAIL] = 0
	L2_cache_stats_breakdown[GLOBAL_ACC_R][SECTOR_MISS] = 31468
	L2_cache_stats_breakdown[LOCAL_ACC_R][HIT] = 0
	L2_cache_stats_breakdown[LOCAL_ACC_R][HIT_RESERVED] = 0
	L2_cache_stats_breakdown[LOCAL_ACC_R][MISS] = 0
	L2_cache_stats_breakdown[LOCAL_ACC_R][RESERVATION_FAIL] = 0
	L2_cache_stats_breakdown[LOCAL_ACC_R][SECTOR_MISS] = 0
	L2_cache_stats_breakdown[CONST_ACC_R][HIT] = 0
	L2_cache_stats_breakdown[CONST_ACC_R][HIT_RESERVED] = 0
	L2_cache_stats_breakdown[CONST_ACC_R][MISS] = 0
	L2_cache_stats_breakdown[CONST_ACC_R][RESERVATION_FAIL] = 0
	L2_cache_stats_breakdown[CONST_ACC_R][SECTOR_MISS] = 0
	L2_cache_stats_breakdown[TEXTURE_ACC_R][HIT] = 0
	L2_cache_stats_breakdown[TEXTURE_ACC_R][HIT_RESERVED] = 0
	L2_cache_stats_breakdown[TEXTURE_ACC_R][MISS] = 0
	L2_cache_stats_breakdown[TEXTURE_ACC_R][RESERVATION_FAIL] = 0
	L2_cache_stats_breakdown[TEXTURE_ACC_R][SECTOR_MISS] = 0
	L2_cache_stats_breakdown[GLOBAL_ACC_W][HIT] = 6261
	L2_cache_stats_breakdown[GLOBAL_ACC_W][HIT_RESERVED] = 0
	L2_cache_stats_breakdown[GLOBAL_ACC_W][MISS] = 313
	L2_cache_stats_breakdown[GLOBAL_ACC_W][RESERVATION_FAIL] = 0
	L2_cache_stats_breakdown[GLOBAL_ACC_W][SECTOR_MISS] = 1261
	L2_cache_stats_breakdown[LOCAL_ACC_W][HIT] = 0
	L2_cache_stats_breakdown[LOCAL_ACC_W][HIT_RESERVED] = 0
	L2_cache_stats_breakdown[LOCAL_ACC_W][MISS] = 0
	L2_cache_stats_breakdown[LOCAL_ACC_W][RESERVATION_FAIL] = 0
	L2_cache_stats_breakdown[LOCAL_ACC_W][SECTOR_MISS] = 0
	L2_cache_stats_breakdown[L1_WRBK_ACC][HIT] = 0
	L2_cache_stats_breakdown[L1_WRBK_ACC][HIT_RESERVED] = 0
	L2_cache_stats_breakdown[L1_WRBK_ACC][MISS] = 0
	L2_cache_stats_breakdown[L1_WRBK_ACC][RESERVATION_FAIL] = 0
	L2_cache_stats_breakdown[L1_WRBK_ACC][SECTOR_MISS] = 0
	L2_cache_stats_breakdown[L2_WRBK_ACC][HIT] = 0
	L2_cache_stats_breakdown[L2_WRBK_ACC][HIT_RESERVED] = 0
	L2_cache_stats_breakdown[L2_WRBK_ACC][MISS] = 0
	L2_cache_stats_breakdown[L2_WRBK_ACC][RESERVATION_FAIL] = 0
	L2_cache_stats_breakdown[L2_WRBK_ACC][SECTOR_MISS] = 0
	L2_cache_stats_breakdown[INST_ACC_R][HIT] = 0
	L2_cache_stats_breakdown[INST_ACC_R][HIT_RESERVED] = 0
	L2_cache_stats_breakdown[INST_ACC_R][MISS] = 0
	L2_cache_stats_breakdown[INST_ACC_R][RESERVATION_FAIL] = 0
	L2_cache_stats_breakdown[INST_ACC_R][SECTOR_MISS] = 0
	L2_cache_stats_breakdown[L1_WR_ALLOC_R][HIT] = 0
	L2_cache_stats_breakdown[L1_WR_ALLOC_R][HIT_RESERVED] = 0
	L2_cache_stats_breakdown[L1_WR_ALLOC_R][MISS] = 0
	L2_cache_stats_breakdown[L1_WR_ALLOC_R][RESERVATION_FAIL] = 0
	L2_cache_stats_breakdown[L1_WR_ALLOC_R][SECTOR_MISS] = 0
	L2_cache_stats_breakdown[L2_WR_ALLOC_R][HIT] = 0
	L2_cache_stats_breakdown[L2_WR_ALLOC_R][HIT_RESERVED] = 0
	L2_cache_stats_breakdown[L2_WR_ALLOC_R][MISS] = 0
	L2_cache_stats_breakdown[L2_WR_ALLOC_R][RESERVATION_FAIL] = 0
	L2_cache_stats_breakdown[L2_WR_ALLOC_R][SECTOR_MISS] = 0
	L2_cache_stats_breakdown[GLOBAL_ACC_R][TOTAL_ACCESS] = 146174
	L2_cache_stats_breakdown[GLOBAL_ACC_W][TOTAL_ACCESS] = 7835
L2_total_cache_reservation_fail_breakdown:
L2_cache_data_port_util = 0.035
L2_cache_fill_port_util = 0.014

icnt_total_pkts_mem_to_simt=154009
icnt_total_pkts_simt_to_mem=154009
LD_mem_lat_dist  0 0 0 0 0 0 0 0 0 0 0 0 0 0 0 0 0 0 0 0 0 0 0 0 0 0 0
ST_mem_lat_dist  0 0 0 0 0 0 0 0 0 0 0 0 0 0 0 0 0 0 0 0 0 0 0 0 0 0 0
----------------------------Interconnect-DETAILS--------------------------------
Req_Network_injected_packets_num = 154009
Req_Network_cycles = 63725
Req_Network_injected_packets_per_cycle =       2.4168 
Req_Network_conflicts_per_cycle =       0.6364
Req_Network_conflicts_per_cycle_util =       0.8399
Req_Bank_Level_Parallism =       3.1893
Req_Network_in_buffer_full_per_cycle =       0.0000
Req_Network_in_buffer_avg_util =       0.2400
Req_Network_out_buffer_full_per_cycle =       0.0000
Req_Network_out_buffer_avg_util =       0.0503

Reply_Network_injected_packets_num = 154009
Reply_Network_cycles = 63725
Reply_Network_injected_packets_per_cycle =        2.4168
Reply_Network_conflicts_per_cycle =        0.5990
Reply_Network_conflicts_per_cycle_util =       0.7601
Reply_Bank_Level_Parallism =       3.0669
Reply_Network_in_buffer_full_per_cycle =       0.0000
Reply_Network_in_buffer_avg_util =       0.0307
Reply_Network_out_buffer_full_per_cycle =       0.0000
Reply_Network_out_buffer_avg_util =       0.0604
----------------------------END-of-Interconnect-DETAILS-------------------------


gpgpu_simulation_time = 0 days, 0 hrs, 3 min, 47 sec (227 sec)
gpgpu_simulation_rate = 277152 (inst/sec)
gpgpu_simulation_rate = 280 (cycle/sec)
gpgpu_silicon_slowdown = 4285714x
GPGPU-Sim: synchronize waiting for inactive GPU simulation
GPGPU-Sim API: Stream Manager State
GPGPU-Sim: detected inactive GPU simulation thread
GPGPU-Sim: *** exit detected ***
