

        *** GPGPU-Sim Simulator Version 4.0.0  [build gpgpu-sim_git-commit-90ec3399763d7c8512cfe7dc193473086c38ca38_modified_0.0] ***


GPGPU-Sim PTX: simulation mode 0 (can change with PTX_SIM_MODE_FUNC environment variable:
               1=functional simulation only, 0=detailed performance simulator)
GPGPU-Sim PTX: overriding embedded ptx with ptx file (PTX_SIM_USE_PTX_FILE is set)
GPGPU-Sim: Configuration options:

-save_embedded_ptx                      0 # saves ptx files embedded in binary as <n>.ptx
-keep                                   0 # keep intermediate files created by GPGPU-Sim when interfacing with external programs
-gpgpu_ptx_save_converted_ptxplus                    0 # Saved converted ptxplus to a file
-gpgpu_occupancy_sm_number                   62 # The SM number to pass to ptxas when getting register usage for computing GPU occupancy. This parameter is required in the config.
-ptx_opcode_latency_int      4,13,4,5,145,32 # Opcode latencies for integers <ADD,MAX,MUL,MAD,DIV,SHFL>Default 1,1,19,25,145,32
-ptx_opcode_latency_fp          4,13,4,4,39 # Opcode latencies for single precision floating points <ADD,MAX,MUL,MAD,DIV>Default 1,1,1,1,30
-ptx_opcode_latency_dp         8,19,8,8,330 # Opcode latencies for double precision floating points <ADD,MAX,MUL,MAD,DIV>Default 8,8,8,8,335
-ptx_opcode_latency_sfu                   20 # Opcode latencies for SFU instructionsDefault 8
-ptx_opcode_latency_tesnor                   64 # Opcode latencies for Tensor instructionsDefault 64
-ptx_opcode_initiation_int          1,1,1,1,4,4 # Opcode initiation intervals for integers <ADD,MAX,MUL,MAD,DIV,SHFL>Default 1,1,4,4,32,4
-ptx_opcode_initiation_fp            1,2,1,1,4 # Opcode initiation intervals for single precision floating points <ADD,MAX,MUL,MAD,DIV>Default 1,1,1,1,5
-ptx_opcode_initiation_dp          8,8,8,8,130 # Opcode initiation intervals for double precision floating points <ADD,MAX,MUL,MAD,DIV>Default 8,8,8,8,130
-ptx_opcode_initiation_sfu                    4 # Opcode initiation intervals for sfu instructionsDefault 8
-ptx_opcode_initiation_tensor                   64 # Opcode initiation intervals for tensor instructionsDefault 64
-cdp_latency         7200,8000,100,12000,1600 # CDP API latency <cudaStreamCreateWithFlags, cudaGetParameterBufferV2_init_perWarp, cudaGetParameterBufferV2_perKernel, cudaLaunchDeviceV2_init_perWarp, cudaLaunchDevicV2_perKernel>Default 7200,8000,100,12000,1600
-network_mode                           1 # Interconnection network mode
-inter_config_file   config_pascal_islip.icnt # Interconnection network config file
-icnt_in_buffer_limit                   64 # in_buffer_limit
-icnt_out_buffer_limit                   64 # out_buffer_limit
-icnt_subnets                           2 # subnets
-icnt_arbiter_algo                      1 # arbiter_algo
-icnt_verbose                           0 # inct_verbose
-icnt_grant_cycles                      1 # grant_cycles
-gpgpu_ptx_use_cuobjdump                    1 # Use cuobjdump to extract ptx and sass from binaries
-gpgpu_experimental_lib_support                    0 # Try to extract code from cuda libraries [Broken because of unknown cudaGetExportTable]
-checkpoint_option                      0 #  checkpointing flag (0 = no checkpoint)
-checkpoint_kernel                      1 #  checkpointing during execution of which kernel (1- 1st kernel)
-checkpoint_CTA                         0 #  checkpointing after # of CTA (< less than total CTA)
-resume_option                          0 #  resume flag (0 = no resume)
-resume_kernel                          0 #  Resume from which kernel (1= 1st kernel)
-resume_CTA                             0 #  resume from which CTA 
-checkpoint_CTA_t                       0 #  resume from which CTA 
-checkpoint_insn_Y                      0 #  resume from which CTA 
-gpgpu_ptx_convert_to_ptxplus                    0 # Convert SASS (native ISA) to ptxplus and run ptxplus
-gpgpu_ptx_force_max_capability                   61 # Force maximum compute capability
-gpgpu_ptx_inst_debug_to_file                    0 # Dump executed instructions' debug information to file
-gpgpu_ptx_inst_debug_file       inst_debug.txt # Executed instructions' debug output file
-gpgpu_ptx_inst_debug_thread_uid                    1 # Thread UID for executed instructions' debug output
-gpgpu_simd_model                       1 # 1 = post-dominator
-gpgpu_shader_core_pipeline              2048:32 # shader core pipeline config, i.e., {<nthread>:<warpsize>}
-gpgpu_tex_cache:l1  N:16:128:24,L:R:m:N:L,T:128:4,128:2 # per-shader L1 texture cache  (READ-ONLY) config  {<nsets>:<bsize>:<assoc>,<rep>:<wr>:<alloc>:<wr_alloc>,<mshr>:<N>:<merge>,<mq>:<rf>}
-gpgpu_const_cache:l1 N:128:64:2,L:R:f:N:L,S:2:64,4 # per-shader L1 constant memory cache  (READ-ONLY) config  {<nsets>:<bsize>:<assoc>,<rep>:<wr>:<alloc>:<wr_alloc>,<mshr>:<N>:<merge>,<mq>} 
-gpgpu_cache:il1     N:8:128:4,L:R:f:N:L,S:2:48,4 # shader L1 instruction cache config  {<nsets>:<bsize>:<assoc>,<rep>:<wr>:<alloc>:<wr_alloc>,<mshr>:<N>:<merge>,<mq>} 
-gpgpu_cache:dl1     S:4:128:96,L:L:s:N:L,A:256:8,16:0,32 # per-shader L1 data cache config  {<nsets>:<bsize>:<assoc>,<rep>:<wr>:<alloc>:<wr_alloc>,<mshr>:<N>:<merge>,<mq> | none}
-gpgpu_l1_banks                         2 # The number of L1 cache banks
-gpgpu_l1_banks_byte_interleaving                   32 # l1 banks byte interleaving granularity
-gpgpu_l1_banks_hashing_function                    0 # l1 banks hashing function
-gpgpu_l1_latency                      82 # L1 Hit Latency
-gpgpu_smem_latency                    24 # smem Latency
-gpgpu_cache:dl1PrefL1 S:4:128:96,L:L:s:N:L,A:256:8,16:0,32 # per-shader L1 data cache config  {<nsets>:<bsize>:<assoc>,<rep>:<wr>:<alloc>:<wr_alloc>,<mshr>:<N>:<merge>,<mq> | none}
-gpgpu_cache:dl1PrefShared S:4:128:96,L:L:s:N:L,A:256:8,16:0,32 # per-shader L1 data cache config  {<nsets>:<bsize>:<assoc>,<rep>:<wr>:<alloc>:<wr_alloc>,<mshr>:<N>:<merge>,<mq> | none}
-gpgpu_gmem_skip_L1D                    1 # global memory access skip L1D cache (implements -Xptxas -dlcm=cg, default=no skip)
-gpgpu_perfect_mem                      0 # enable perfect memory mode (no cache miss)
-n_regfile_gating_group                    4 # group of lanes that should be read/written together)
-gpgpu_clock_gated_reg_file                    0 # enable clock gated reg file for power calculations
-gpgpu_clock_gated_lanes                    0 # enable clock gated lanes for power calculations
-gpgpu_shader_registers                65536 # Number of registers per shader core. Limits number of concurrent CTAs. (default 8192)
-gpgpu_registers_per_block                 8192 # Maximum number of registers per CTA. (default 8192)
-gpgpu_ignore_resources_limitation                    1 # gpgpu_ignore_resources_limitation (default 0)
-gpgpu_shader_cta                      32 # Maximum number of concurrent CTAs in shader (default 8)
-gpgpu_num_cta_barriers                   16 # Maximum number of named barriers per CTA (default 16)
-gpgpu_n_clusters                      28 # number of processing clusters
-gpgpu_n_cores_per_cluster                    1 # number of simd cores per cluster
-gpgpu_n_cluster_ejection_buffer_size                   32 # number of packets in ejection buffer
-gpgpu_n_ldst_response_buffer_size                    2 # number of response packets in ld/st unit ejection buffer
-gpgpu_shmem_per_block                49152 # Size of shared memory per thread block or CTA (default 48kB)
-gpgpu_shmem_size                   98304 # Size of shared memory per shader core (default 16kB)
-gpgpu_adaptive_cache_config                    0 # adaptive_cache_config
-gpgpu_shmem_sizeDefault                98304 # Size of shared memory per shader core (default 16kB)
-gpgpu_shmem_size_PrefL1                98304 # Size of shared memory per shader core (default 16kB)
-gpgpu_shmem_size_PrefShared                98304 # Size of shared memory per shader core (default 16kB)
-gpgpu_shmem_num_banks                   32 # Number of banks in the shared memory in each shader core (default 16)
-gpgpu_shmem_limited_broadcast                    0 # Limit shared memory to do one broadcast per cycle (default on)
-gpgpu_shmem_warp_parts                    1 # Number of portions a warp is divided into for shared memory bank conflict check 
-gpgpu_mem_unit_ports                    1 # The number of memory transactions allowed per core cycle
-gpgpu_shmem_warp_parts                    1 # Number of portions a warp is divided into for shared memory bank conflict check 
-gpgpu_warpdistro_shader                   -1 # Specify which shader core to collect the warp size distribution from
-gpgpu_warp_issue_shader                    0 # Specify which shader core to collect the warp issue distribution from
-gpgpu_local_mem_map                    1 # Mapping from local memory space address to simulated GPU physical address space (default = enabled)
-gpgpu_num_reg_banks                   16 # Number of register banks (default = 8)
-gpgpu_reg_bank_use_warp_id                    0 # Use warp ID in mapping registers to banks (default = off)
-gpgpu_sub_core_model                    1 # Sub Core Volta/Pascal model (default = off)
-gpgpu_enable_specialized_operand_collector                    0 # enable_specialized_operand_collector
-gpgpu_operand_collector_num_units_sp                    4 # number of collector units (default = 4)
-gpgpu_operand_collector_num_units_dp                    0 # number of collector units (default = 0)
-gpgpu_operand_collector_num_units_sfu                    4 # number of collector units (default = 4)
-gpgpu_operand_collector_num_units_int                    0 # number of collector units (default = 0)
-gpgpu_operand_collector_num_units_tensor_core                    4 # number of collector units (default = 4)
-gpgpu_operand_collector_num_units_mem                    2 # number of collector units (default = 2)
-gpgpu_operand_collector_num_units_gen                    8 # number of collector units (default = 0)
-gpgpu_operand_collector_num_in_ports_sp                    1 # number of collector unit in ports (default = 1)
-gpgpu_operand_collector_num_in_ports_dp                    0 # number of collector unit in ports (default = 0)
-gpgpu_operand_collector_num_in_ports_sfu                    1 # number of collector unit in ports (default = 1)
-gpgpu_operand_collector_num_in_ports_int                    0 # number of collector unit in ports (default = 0)
-gpgpu_operand_collector_num_in_ports_tensor_core                    1 # number of collector unit in ports (default = 1)
-gpgpu_operand_collector_num_in_ports_mem                    1 # number of collector unit in ports (default = 1)
-gpgpu_operand_collector_num_in_ports_gen                    8 # number of collector unit in ports (default = 0)
-gpgpu_operand_collector_num_out_ports_sp                    1 # number of collector unit in ports (default = 1)
-gpgpu_operand_collector_num_out_ports_dp                    0 # number of collector unit in ports (default = 0)
-gpgpu_operand_collector_num_out_ports_sfu                    1 # number of collector unit in ports (default = 1)
-gpgpu_operand_collector_num_out_ports_int                    0 # number of collector unit in ports (default = 0)
-gpgpu_operand_collector_num_out_ports_tensor_core                    1 # number of collector unit in ports (default = 1)
-gpgpu_operand_collector_num_out_ports_mem                    1 # number of collector unit in ports (default = 1)
-gpgpu_operand_collector_num_out_ports_gen                    8 # number of collector unit in ports (default = 0)
-gpgpu_coalesce_arch                   61 # Coalescing arch (GT200 = 13, Fermi = 20)
-gpgpu_num_sched_per_core                    4 # Number of warp schedulers per core
-gpgpu_max_insn_issue_per_warp                    2 # Max number of instructions that can be issued per warp in one cycle by scheduler (either 1 or 2)
-gpgpu_dual_issue_diff_exec_units                    1 # should dual issue use two different execution unit resources (Default = 1)
-gpgpu_simt_core_sim_order                    1 # Select the simulation order of cores in a cluster (0=Fix, 1=Round-Robin)
-gpgpu_pipeline_widths 4,0,0,4,4,4,0,0,4,4,8 # Pipeline widths ID_OC_SP,ID_OC_DP,ID_OC_INT,ID_OC_SFU,ID_OC_MEM,OC_EX_SP,OC_EX_DP,OC_EX_INT,OC_EX_SFU,OC_EX_MEM,EX_WB,ID_OC_TENSOR_CORE,OC_EX_TENSOR_CORE
-gpgpu_tensor_core_avail                    0 # Tensor Core Available (default=0)
-gpgpu_num_sp_units                     4 # Number of SP units (default=1)
-gpgpu_num_dp_units                     0 # Number of DP units (default=0)
-gpgpu_num_int_units                    0 # Number of INT units (default=0)
-gpgpu_num_sfu_units                    4 # Number of SF units (default=1)
-gpgpu_num_tensor_core_units                    0 # Number of tensor_core units (default=1)
-gpgpu_num_mem_units                    1 # Number if ldst units (default=1) WARNING: not hooked up to anything
-gpgpu_scheduler                      gto # Scheduler configuration: < lrr | gto | two_level_active > If two_level_active:<num_active_warps>:<inner_prioritization>:<outer_prioritization>For complete list of prioritization values see shader.h enum scheduler_prioritization_typeDefault: gto
-gpgpu_concurrent_kernel_sm                    0 # Support concurrent kernels on a SM (default = disabled)
-gpgpu_perfect_inst_const_cache                    1 # perfect inst and const cache mode, so all inst and const hits in the cache(default = disabled)
-gpgpu_inst_fetch_throughput                    8 # the number of fetched intruction per warp each cycle
-gpgpu_reg_file_port_throughput                    2 # the number ports of the register file
-specialized_unit_1         0,4,4,4,4,BRA # specialized unit config {<enabled>,<num_units>:<latency>:<initiation>,<ID_OC_SPEC>:<OC_EX_SPEC>,<NAME>}
-specialized_unit_2         0,4,4,4,4,BRA # specialized unit config {<enabled>,<num_units>:<latency>:<initiation>,<ID_OC_SPEC>:<OC_EX_SPEC>,<NAME>}
-specialized_unit_3         0,4,4,4,4,BRA # specialized unit config {<enabled>,<num_units>:<latency>:<initiation>,<ID_OC_SPEC>:<OC_EX_SPEC>,<NAME>}
-specialized_unit_4         0,4,4,4,4,BRA # specialized unit config {<enabled>,<num_units>:<latency>:<initiation>,<ID_OC_SPEC>:<OC_EX_SPEC>,<NAME>}
-specialized_unit_5         0,4,4,4,4,BRA # specialized unit config {<enabled>,<num_units>:<latency>:<initiation>,<ID_OC_SPEC>:<OC_EX_SPEC>,<NAME>}
-specialized_unit_6         0,4,4,4,4,BRA # specialized unit config {<enabled>,<num_units>:<latency>:<initiation>,<ID_OC_SPEC>:<OC_EX_SPEC>,<NAME>}
-specialized_unit_7         0,4,4,4,4,BRA # specialized unit config {<enabled>,<num_units>:<latency>:<initiation>,<ID_OC_SPEC>:<OC_EX_SPEC>,<NAME>}
-specialized_unit_8         0,4,4,4,4,BRA # specialized unit config {<enabled>,<num_units>:<latency>:<initiation>,<ID_OC_SPEC>:<OC_EX_SPEC>,<NAME>}
-gpgpu_perf_sim_memcpy                    1 # Fill the L2 cache on memcpy
-gpgpu_simple_dram_model                    0 # simple_dram_model with fixed latency and BW
-gpgpu_dram_scheduler                    1 # 0 = fifo, 1 = FR-FCFS (defaul)
-gpgpu_dram_partition_queues          32:32:32:32 # i2$:$2d:d2$:$2i
-l2_ideal                               0 # Use a ideal L2 cache that always hit
-gpgpu_cache:dl2     S:64:128:16,L:B:m:L:P,A:256:64,16:0,32 # unified banked L2 data cache config  {<nsets>:<bsize>:<assoc>,<rep>:<wr>:<alloc>:<wr_alloc>,<mshr>:<N>:<merge>,<mq>}
-gpgpu_cache:dl2_texture_only                    0 # L2 cache used for texture only
-gpgpu_n_mem                           12 # number of memory modules (e.g. memory controllers) in gpu
-gpgpu_n_sub_partition_per_mchannel                    2 # number of memory subpartition in each memory module
-gpgpu_n_mem_per_ctrlr                    1 # number of memory chips per memory controller
-gpgpu_memlatency_stat                   14 # track and display latency statistics 0x2 enables MC, 0x4 enables queue logs
-gpgpu_frfcfs_dram_sched_queue_size                   64 # 0 = unlimited (default); # entries per chip
-gpgpu_dram_return_queue_size                   64 # 0 = unlimited (default); # entries per chip
-gpgpu_dram_buswidth                    4 # default = 4 bytes (8 bytes per cycle at DDR)
-gpgpu_dram_burst_length                    8 # Burst length of each DRAM request (default = 4 data bus cycle)
-dram_data_command_freq_ratio                    4 # Frequency ratio between DRAM data bus and command bus (default = 2 times, i.e. DDR)
-gpgpu_dram_timing_opt nbk=16:CCD=2:RRD=8:RCD=16:RAS=37:RP=16:RC=52: CL=16:WL=6:CDLR=7:WR=16:nbkgrp=4:CCDL=4:RTPL=3 # DRAM timing parameters = {nbk:tCCD:tRRD:tRCD:tRAS:tRP:tRC:CL:WL:tCDLR:tWR:nbkgrp:tCCDL:tRTPL}
-gpgpu_l2_rop_latency                  120 # ROP queue latency (default 85)
-dram_latency                         100 # DRAM latency (default 30)
-dram_dual_bus_interface                    0 # dual_bus_interface (default = 0) 
-dram_bnk_indexing_policy                    0 # dram_bnk_indexing_policy (0 = normal indexing, 1 = Xoring with the higher bits) (Default = 0)
-dram_bnkgrp_indexing_policy                    1 # dram_bnkgrp_indexing_policy (0 = take higher bits, 1 = take lower bits) (Default = 0)
-dram_seperate_write_queue_enable                    0 # Seperate_Write_Queue_Enable
-dram_write_queue_size             32:28:16 # Write_Queue_Size
-dram_elimnate_rw_turnaround                    0 # elimnate_rw_turnaround i.e set tWTR and tRTW = 0
-icnt_flit_size                        40 # icnt_flit_size
-gpgpu_mem_addr_mapping dramid@8;00000000.00000000.00000000.00000000.0000RRRR.RRRRRRRR.RBBBCCCC.BCCSSSSS # mapping memory address to dram model {dramid@<start bit>;<memory address map>}
-gpgpu_mem_addr_test                    0 # run sweep test to check address mapping for aliased address
-gpgpu_mem_address_mask                    1 # 0 = old addressing mask, 1 = new addressing mask, 2 = new add. mask + flipped bank sel and chip sel bits
-gpgpu_memory_partition_indexing                    4 # 0 = no indexing, 1 = bitwise xoring, 2 = IPoly, 3 = custom indexing
-gpuwattch_xml_file         gpuwattch.xml # GPUWattch XML file
-power_simulation_enabled                    1 # Turn on power simulator (1=On, 0=Off)
-power_per_cycle_dump                    0 # Dump detailed power output each cycle
-power_trace_enabled                    0 # produce a file for the power trace (1=On, 0=Off)
-power_trace_zlevel                     6 # Compression level of the power trace output log (0=no comp, 9=highest)
-steady_power_levels_enabled                    0 # produce a file for the steady power levels (1=On, 0=Off)
-steady_state_definition                  8:4 # allowed deviation:number of samples
-gpgpu_max_cycle                        0 # terminates gpu simulation early (0 = no limit)
-gpgpu_max_insn                         0 # terminates gpu simulation early (0 = no limit)
-gpgpu_max_cta                          0 # terminates gpu simulation early (0 = no limit)
-gpgpu_max_completed_cta                    0 # terminates gpu simulation early (0 = no limit)
-gpgpu_runtime_stat                   500 # display runtime statistics such as dram utilization {<freq>:<flag>}
-liveness_message_freq                    1 # Minimum number of seconds between simulation liveness messages (0 = always print)
-gpgpu_compute_capability_major                    6 # Major compute capability version number
-gpgpu_compute_capability_minor                    1 # Minor compute capability version number
-gpgpu_flush_l1_cache                    1 # Flush L1 cache at the end of each kernel call
-gpgpu_flush_l2_cache                    0 # Flush L2 cache at the end of each kernel call
-gpgpu_deadlock_detect                    1 # Stop the simulation at deadlock (1=on (default), 0=off)
-gpgpu_ptx_instruction_classification                    0 # if enabled will classify ptx instruction types per kernel (Max 255 kernels now)
-gpgpu_ptx_sim_mode                     0 # Select between Performance (default) or Functional simulation (1)
-gpgpu_clock_domains 1417.0:1417.0:1417.0:2500.0 # Clock Domain Frequencies in MhZ {<Core Clock>:<ICNT Clock>:<L2 Clock>:<DRAM Clock>}
-gpgpu_max_concurrent_kernel                    8 # maximum kernels that can run concurrently on GPU
-gpgpu_cflog_interval                    0 # Interval between each snapshot in control flow logger
-visualizer_enabled                     0 # Turn on visualizer output (1=On, 0=Off)
-visualizer_outputfile                 NULL # Specifies the output log file for visualizer
-visualizer_zlevel                      6 # Compression level of the visualizer output log (0=no comp, 9=highest)
-gpgpu_stack_size_limit                 1024 # GPU thread stack size
-gpgpu_heap_size_limit              8388608 # GPU malloc heap size 
-gpgpu_runtime_sync_depth_limit                    2 # GPU device runtime synchronize depth
-gpgpu_runtime_pending_launch_count_limit                 2048 # GPU device runtime pending launch count
-trace_enabled                          0 # Turn on traces
-trace_components                    none # comma seperated list of traces to enable. Complete list found in trace_streams.tup. Default none
-trace_sampling_core                    0 # The core which is printed using CORE_DPRINTF. Default 0
-trace_sampling_memory_partition                   -1 # The memory partition which is printed using MEMPART_DPRINTF. Default -1 (i.e. all)
-enable_ptx_file_line_stats                    1 # Turn on PTX source line statistic profiling. (1 = On)
-ptx_line_stats_filename gpgpu_inst_stats.txt # Output file for PTX source line statistics.
-gpgpu_kernel_launch_latency                 5000 # Kernel launch latency in cycles. Default: 0
-gpgpu_cdp_enabled                      0 # Turn on CDP
-gpgpu_TB_launch_latency                    0 # thread block launch latency in cycles. Default: 0
DRAM Timing Options:
nbk                                    16 # number of banks
CCD                                     2 # column to column delay
RRD                                     8 # minimal delay between activation of rows in different banks
RCD                                    16 # row to column delay
RAS                                    37 # time needed to activate row
RP                                     16 # time needed to precharge (deactivate) row
RC                                     52 # row cycle time
CDLR                                    7 # switching from write to read (changes tWTR)
WR                                     16 # last data-in to row precharge
CL                                     16 # CAS latency
WL                                      6 # Write latency
nbkgrp                                  4 # number of bank groups
CCDL                                    4 # column to column delay between accesses to different bank groups
RTPL                                    3 # read to precharge delay between accesses to different bank groups
Total number of memory sub partition = 24
addr_dec_mask[CHIP]  = 0000000000000000 	high:64 low:0
addr_dec_mask[BK]    = 0000000000007080 	high:15 low:7
addr_dec_mask[ROW]   = 000000000fff8000 	high:28 low:15
addr_dec_mask[COL]   = 0000000000000f7f 	high:12 low:0
addr_dec_mask[BURST] = 000000000000001f 	high:5 low:0
sub_partition_id_mask = 0000000000000080
GPGPU-Sim uArch: clock freqs: 1417000000.000000:1417000000.000000:1417000000.000000:2500000000.000000
GPGPU-Sim uArch: clock periods: 0.00000000070571630205:0.00000000070571630205:0.00000000070571630205:0.00000000040000000000
*** Initializing Memory Statistics ***
GPGPU-Sim uArch: interconnect node map (shaderID+MemID to icntID)
GPGPU-Sim uArch: Memory nodes ID start from index: 28
GPGPU-Sim uArch:    0   1   2   3   4   5   6
GPGPU-Sim uArch:    7   8   9  10  11  12  13
GPGPU-Sim uArch:   14  15  16  17  18  19  20
GPGPU-Sim uArch:   21  22  23  24  25  26  27
GPGPU-Sim uArch:   28  29  30  31  32  33  34
GPGPU-Sim uArch:   35  36  37  38  39  40  41
GPGPU-Sim uArch:   42  43  44  45  46  47  48
GPGPU-Sim uArch:   49  50  51
GPGPU-Sim uArch: interconnect node reverse map (icntID to shaderID+MemID)
GPGPU-Sim uArch: Memory nodes start from ID: 28
GPGPU-Sim uArch:    0   1   2   3   4   5   6
GPGPU-Sim uArch:    7   8   9  10  11  12  13
GPGPU-Sim uArch:   14  15  16  17  18  19  20
GPGPU-Sim uArch:   21  22  23  24  25  26  27
GPGPU-Sim uArch:   28  29  30  31  32  33  34
GPGPU-Sim uArch:   35  36  37  38  39  40  41
GPGPU-Sim uArch:   42  43  44  45  46  47  48
GPGPU-Sim uArch:   49  50  51
c614da2c61503acd27fb6d90ac698b19  /home/vishnu/COA_Lab/Lab4_28-08-2023/gpu-rodinia/cuda/bfs/a.out
Extracting PTX file and ptxas options    1: a.1.sm_52.ptx -arch=sm_52
GPGPU-Sim uArch: performance model initialization complete.
self exe links to: /home/vishnu/COA_Lab/Lab4_28-08-2023/gpu-rodinia/cuda/bfs/a.out
self exe links to: /home/vishnu/COA_Lab/Lab4_28-08-2023/gpu-rodinia/cuda/bfs/a.out
11.0
GPGPU-Sim PTX: __cudaRegisterFatBinary, fat_cubin_handle = 1, filename=default
self exe links to: /home/vishnu/COA_Lab/Lab4_28-08-2023/gpu-rodinia/cuda/bfs/a.out
Running md5sum using "md5sum /home/vishnu/COA_Lab/Lab4_28-08-2023/gpu-rodinia/cuda/bfs/a.out "
self exe links to: /home/vishnu/COA_Lab/Lab4_28-08-2023/gpu-rodinia/cuda/bfs/a.out
Extracting specific PTX file named a.1.sm_52.ptx 
GPGPU-Sim PTX: __cudaRegisterFunction _Z7Kernel2PbS_S_S_i : hostFun 0x0x55ae34f9df9e, fat_cubin_handle = 1
GPGPU-Sim PTX: Parsing a.1.sm_52.ptx
GPGPU-Sim PTX: instruction assembly for function '_Z6KernelP4NodePiPbS2_S2_S1_i'...   done.
GPGPU-Sim PTX: instruction assembly for function '_Z7Kernel2PbS_S_S_i'...   done.
GPGPU-Sim PTX: finished parsing EMBEDDED .ptx file a.1.sm_52.ptx
GPGPU-Sim PTX: loading globals with explicit initializers... 
GPGPU-Sim PTX: finished loading globals (0 bytes total).
GPGPU-Sim PTX: loading constants with explicit initializers...  done.
GPGPU-Sim PTX: Loading PTXInfo from a.1.sm_52.ptx
GPGPU-Sim PTX: Kernel '_Z7Kernel2PbS_S_S_i' : regs=12, lmem=0, smem=0, cmem=356
GPGPU-Sim PTX: Kernel '_Z6KernelP4NodePiPbS2_S2_S1_i' : regs=18, lmem=0, smem=0, cmem=372
GPGPU-Sim PTX: __cudaRegisterFunction _Z6KernelP4NodePiPbS2_S2_S1_i : hostFun 0x0x55ae34f9ddc3, fat_cubin_handle = 1
Reading File
Read File
Copied Everything to GPU memory
Start traversing the tree
GPGPU-Sim PTX: Setting up arguments for 8 bytes starting at 0x7ffdc752a598..
GPGPU-Sim PTX: Setting up arguments for 8 bytes starting at 0x7ffdc752a590..
GPGPU-Sim PTX: Setting up arguments for 8 bytes starting at 0x7ffdc752a588..
GPGPU-Sim PTX: Setting up arguments for 8 bytes starting at 0x7ffdc752a580..
GPGPU-Sim PTX: Setting up arguments for 8 bytes starting at 0x7ffdc752a578..
GPGPU-Sim PTX: Setting up arguments for 8 bytes starting at 0x7ffdc752a570..
GPGPU-Sim PTX: Setting up arguments for 4 bytes starting at 0x7ffdc752a620..

GPGPU-Sim PTX: cudaLaunch for 0x0x55ae34f9ddc3 (mode=performance simulation) on stream 0
GPGPU-Sim PTX: finding reconvergence points for '_Z6KernelP4NodePiPbS2_S2_S1_i'...
GPGPU-Sim PTX: Finding dominators for '_Z6KernelP4NodePiPbS2_S2_S1_i'...
GPGPU-Sim PTX: Finding immediate dominators for '_Z6KernelP4NodePiPbS2_S2_S1_i'...
GPGPU-Sim PTX: Finding postdominators for '_Z6KernelP4NodePiPbS2_S2_S1_i'...
GPGPU-Sim PTX: Finding immediate postdominators for '_Z6KernelP4NodePiPbS2_S2_S1_i'...
GPGPU-Sim PTX: pre-decoding instructions for '_Z6KernelP4NodePiPbS2_S2_S1_i'...
GPGPU-Sim PTX: reconvergence points for _Z6KernelP4NodePiPbS2_S2_S1_i...
GPGPU-Sim PTX:  1 (potential) branch divergence @  PC=0x060 (a.1.sm_52.ptx:43) @%p1 bra BB0_7;
GPGPU-Sim PTX:    immediate post dominator      @  PC=0x1d8 (a.1.sm_52.ptx:100) ret;
GPGPU-Sim PTX:  2 (potential) branch divergence @  PC=0x090 (a.1.sm_52.ptx:50) @%p2 bra BB0_7;
GPGPU-Sim PTX:    immediate post dominator      @  PC=0x1d8 (a.1.sm_52.ptx:100) ret;
GPGPU-Sim PTX:  3 (potential) branch divergence @  PC=0x0d8 (a.1.sm_52.ptx:60) @%p3 bra BB0_7;
GPGPU-Sim PTX:    immediate post dominator      @  PC=0x1d8 (a.1.sm_52.ptx:100) ret;
GPGPU-Sim PTX:  4 (potential) branch divergence @  PC=0x158 (a.1.sm_52.ptx:79) @%p4 bra BB0_6;
GPGPU-Sim PTX:    immediate post dominator      @  PC=0x1b0 (a.1.sm_52.ptx:93) add.s64 %rd31, %rd31, 4;
GPGPU-Sim PTX:  5 (potential) branch divergence @  PC=0x1d0 (a.1.sm_52.ptx:97) @%p5 bra BB0_4;
GPGPU-Sim PTX:    immediate post dominator      @  PC=0x1d8 (a.1.sm_52.ptx:100) ret;
GPGPU-Sim PTX: ... end of reconvergence points for _Z6KernelP4NodePiPbS2_S2_S1_i
GPGPU-Sim PTX: ... done pre-decoding instructions for '_Z6KernelP4NodePiPbS2_S2_S1_i'.
GPGPU-Sim PTX: pushing kernel '_Z6KernelP4NodePiPbS2_S2_S1_i' to stream 0, gridDim= (128,1,1) blockDim = (512,1,1) 
GPGPU-Sim uArch: Shader 0 bind to kernel 1 '_Z6KernelP4NodePiPbS2_S2_S1_i'
GPGPU-Sim uArch: CTA/core = 4, limited by: threads
GPGPU-Sim uArch: Shader 1 bind to kernel 1 '_Z6KernelP4NodePiPbS2_S2_S1_i'
GPGPU-Sim uArch: Shader 2 bind to kernel 1 '_Z6KernelP4NodePiPbS2_S2_S1_i'
GPGPU-Sim uArch: Shader 3 bind to kernel 1 '_Z6KernelP4NodePiPbS2_S2_S1_i'
GPGPU-Sim uArch: Shader 4 bind to kernel 1 '_Z6KernelP4NodePiPbS2_S2_S1_i'
GPGPU-Sim uArch: Shader 5 bind to kernel 1 '_Z6KernelP4NodePiPbS2_S2_S1_i'
GPGPU-Sim uArch: Shader 6 bind to kernel 1 '_Z6KernelP4NodePiPbS2_S2_S1_i'
GPGPU-Sim uArch: Shader 7 bind to kernel 1 '_Z6KernelP4NodePiPbS2_S2_S1_i'
GPGPU-Sim uArch: Shader 8 bind to kernel 1 '_Z6KernelP4NodePiPbS2_S2_S1_i'
GPGPU-Sim uArch: Shader 9 bind to kernel 1 '_Z6KernelP4NodePiPbS2_S2_S1_i'
GPGPU-Sim uArch: Shader 10 bind to kernel 1 '_Z6KernelP4NodePiPbS2_S2_S1_i'
GPGPU-Sim uArch: Shader 11 bind to kernel 1 '_Z6KernelP4NodePiPbS2_S2_S1_i'
GPGPU-Sim uArch: Shader 12 bind to kernel 1 '_Z6KernelP4NodePiPbS2_S2_S1_i'
GPGPU-Sim uArch: Shader 13 bind to kernel 1 '_Z6KernelP4NodePiPbS2_S2_S1_i'
GPGPU-Sim uArch: Shader 14 bind to kernel 1 '_Z6KernelP4NodePiPbS2_S2_S1_i'
GPGPU-Sim uArch: Shader 15 bind to kernel 1 '_Z6KernelP4NodePiPbS2_S2_S1_i'
GPGPU-Sim uArch: Shader 16 bind to kernel 1 '_Z6KernelP4NodePiPbS2_S2_S1_i'
GPGPU-Sim uArch: Shader 17 bind to kernel 1 '_Z6KernelP4NodePiPbS2_S2_S1_i'
GPGPU-Sim uArch: Shader 18 bind to kernel 1 '_Z6KernelP4NodePiPbS2_S2_S1_i'
GPGPU-Sim uArch: Shader 19 bind to kernel 1 '_Z6KernelP4NodePiPbS2_S2_S1_i'
GPGPU-Sim uArch: Shader 20 bind to kernel 1 '_Z6KernelP4NodePiPbS2_S2_S1_i'
GPGPU-Sim uArch: Shader 21 bind to kernel 1 '_Z6KernelP4NodePiPbS2_S2_S1_i'
GPGPU-Sim uArch: Shader 22 bind to kernel 1 '_Z6KernelP4NodePiPbS2_S2_S1_i'
GPGPU-Sim uArch: Shader 23 bind to kernel 1 '_Z6KernelP4NodePiPbS2_S2_S1_i'
GPGPU-Sim uArch: Shader 24 bind to kernel 1 '_Z6KernelP4NodePiPbS2_S2_S1_i'
GPGPU-Sim uArch: Shader 25 bind to kernel 1 '_Z6KernelP4NodePiPbS2_S2_S1_i'
GPGPU-Sim uArch: Shader 26 bind to kernel 1 '_Z6KernelP4NodePiPbS2_S2_S1_i'
GPGPU-Sim uArch: Shader 27 bind to kernel 1 '_Z6KernelP4NodePiPbS2_S2_S1_i'
Destroy streams for kernel 1: size 0
kernel_name = _Z6KernelP4NodePiPbS2_S2_S1_i 
kernel_launch_uid = 1 
gpu_sim_cycle = 10940
gpu_sim_insn = 1245360
gpu_ipc =     113.8355
gpu_tot_sim_cycle = 10940
gpu_tot_sim_insn = 1245360
gpu_tot_ipc =     113.8355
gpu_tot_issued_cta = 128
gpu_occupancy = 55.7630% 
gpu_tot_occupancy = 55.7630% 
max_total_param_size = 0
gpu_stall_dramfull = 0
gpu_stall_icnt2sh    = 0
partiton_level_parallism =       0.1926
partiton_level_parallism_total  =       0.1926
partiton_level_parallism_util =       3.9755
partiton_level_parallism_util_total  =       3.9755
L2_BW  =       8.7331 GB/Sec
L2_BW_total  =       8.7331 GB/Sec
gpu_total_sim_rate=415120

========= Core cache stats =========
L1I_cache:
	L1I_total_cache_accesses = 0
	L1I_total_cache_misses = 0
	L1I_total_cache_pending_hits = 0
	L1I_total_cache_reservation_fails = 0
L1D_cache:
	L1D_cache_core[0]: Access = 0, Miss = 0, Miss_rate = -nan, Pending_hits = 0, Reservation_fails = 0
	L1D_cache_core[1]: Access = 0, Miss = 0, Miss_rate = -nan, Pending_hits = 0, Reservation_fails = 0
	L1D_cache_core[2]: Access = 0, Miss = 0, Miss_rate = -nan, Pending_hits = 0, Reservation_fails = 0
	L1D_cache_core[3]: Access = 0, Miss = 0, Miss_rate = -nan, Pending_hits = 0, Reservation_fails = 0
	L1D_cache_core[4]: Access = 0, Miss = 0, Miss_rate = -nan, Pending_hits = 0, Reservation_fails = 0
	L1D_cache_core[5]: Access = 0, Miss = 0, Miss_rate = -nan, Pending_hits = 0, Reservation_fails = 0
	L1D_cache_core[6]: Access = 0, Miss = 0, Miss_rate = -nan, Pending_hits = 0, Reservation_fails = 0
	L1D_cache_core[7]: Access = 0, Miss = 0, Miss_rate = -nan, Pending_hits = 0, Reservation_fails = 0
	L1D_cache_core[8]: Access = 0, Miss = 0, Miss_rate = -nan, Pending_hits = 0, Reservation_fails = 0
	L1D_cache_core[9]: Access = 0, Miss = 0, Miss_rate = -nan, Pending_hits = 0, Reservation_fails = 0
	L1D_cache_core[10]: Access = 0, Miss = 0, Miss_rate = -nan, Pending_hits = 0, Reservation_fails = 0
	L1D_cache_core[11]: Access = 0, Miss = 0, Miss_rate = -nan, Pending_hits = 0, Reservation_fails = 0
	L1D_cache_core[12]: Access = 0, Miss = 0, Miss_rate = -nan, Pending_hits = 0, Reservation_fails = 0
	L1D_cache_core[13]: Access = 0, Miss = 0, Miss_rate = -nan, Pending_hits = 0, Reservation_fails = 0
	L1D_cache_core[14]: Access = 0, Miss = 0, Miss_rate = -nan, Pending_hits = 0, Reservation_fails = 0
	L1D_cache_core[15]: Access = 0, Miss = 0, Miss_rate = -nan, Pending_hits = 0, Reservation_fails = 0
	L1D_cache_core[16]: Access = 0, Miss = 0, Miss_rate = -nan, Pending_hits = 0, Reservation_fails = 0
	L1D_cache_core[17]: Access = 0, Miss = 0, Miss_rate = -nan, Pending_hits = 0, Reservation_fails = 0
	L1D_cache_core[18]: Access = 0, Miss = 0, Miss_rate = -nan, Pending_hits = 0, Reservation_fails = 0
	L1D_cache_core[19]: Access = 0, Miss = 0, Miss_rate = -nan, Pending_hits = 0, Reservation_fails = 0
	L1D_cache_core[20]: Access = 0, Miss = 0, Miss_rate = -nan, Pending_hits = 0, Reservation_fails = 0
	L1D_cache_core[21]: Access = 0, Miss = 0, Miss_rate = -nan, Pending_hits = 0, Reservation_fails = 0
	L1D_cache_core[22]: Access = 0, Miss = 0, Miss_rate = -nan, Pending_hits = 0, Reservation_fails = 0
	L1D_cache_core[23]: Access = 0, Miss = 0, Miss_rate = -nan, Pending_hits = 0, Reservation_fails = 0
	L1D_cache_core[24]: Access = 0, Miss = 0, Miss_rate = -nan, Pending_hits = 0, Reservation_fails = 0
	L1D_cache_core[25]: Access = 0, Miss = 0, Miss_rate = -nan, Pending_hits = 0, Reservation_fails = 0
	L1D_cache_core[26]: Access = 0, Miss = 0, Miss_rate = -nan, Pending_hits = 0, Reservation_fails = 0
	L1D_cache_core[27]: Access = 0, Miss = 0, Miss_rate = -nan, Pending_hits = 0, Reservation_fails = 0
	L1D_total_cache_accesses = 0
	L1D_total_cache_misses = 0
	L1D_total_cache_pending_hits = 0
	L1D_total_cache_reservation_fails = 0
	L1D_cache_data_port_util = 0.000
	L1D_cache_fill_port_util = 0.000
L1C_cache:
	L1C_total_cache_accesses = 0
	L1C_total_cache_misses = 0
	L1C_total_cache_pending_hits = 0
	L1C_total_cache_reservation_fails = 0
L1T_cache:
	L1T_total_cache_accesses = 0
	L1T_total_cache_misses = 0
	L1T_total_cache_pending_hits = 0
	L1T_total_cache_reservation_fails = 0

Total_core_cache_stats:
	Total_core_cache_stats_breakdown[GLOBAL_ACC_R][HIT] = 0
	Total_core_cache_stats_breakdown[GLOBAL_ACC_R][HIT_RESERVED] = 0
	Total_core_cache_stats_breakdown[GLOBAL_ACC_R][MISS] = 0
	Total_core_cache_stats_breakdown[GLOBAL_ACC_R][RESERVATION_FAIL] = 0
	Total_core_cache_stats_breakdown[GLOBAL_ACC_R][SECTOR_MISS] = 0
	Total_core_cache_stats_breakdown[LOCAL_ACC_R][HIT] = 0
	Total_core_cache_stats_breakdown[LOCAL_ACC_R][HIT_RESERVED] = 0
	Total_core_cache_stats_breakdown[LOCAL_ACC_R][MISS] = 0
	Total_core_cache_stats_breakdown[LOCAL_ACC_R][RESERVATION_FAIL] = 0
	Total_core_cache_stats_breakdown[LOCAL_ACC_R][SECTOR_MISS] = 0
	Total_core_cache_stats_breakdown[CONST_ACC_R][HIT] = 0
	Total_core_cache_stats_breakdown[CONST_ACC_R][HIT_RESERVED] = 0
	Total_core_cache_stats_breakdown[CONST_ACC_R][MISS] = 0
	Total_core_cache_stats_breakdown[CONST_ACC_R][RESERVATION_FAIL] = 0
	Total_core_cache_stats_breakdown[CONST_ACC_R][SECTOR_MISS] = 0
	Total_core_cache_stats_breakdown[TEXTURE_ACC_R][HIT] = 0
	Total_core_cache_stats_breakdown[TEXTURE_ACC_R][HIT_RESERVED] = 0
	Total_core_cache_stats_breakdown[TEXTURE_ACC_R][MISS] = 0
	Total_core_cache_stats_breakdown[TEXTURE_ACC_R][RESERVATION_FAIL] = 0
	Total_core_cache_stats_breakdown[TEXTURE_ACC_R][SECTOR_MISS] = 0
	Total_core_cache_stats_breakdown[GLOBAL_ACC_W][HIT] = 0
	Total_core_cache_stats_breakdown[GLOBAL_ACC_W][HIT_RESERVED] = 0
	Total_core_cache_stats_breakdown[GLOBAL_ACC_W][MISS] = 0
	Total_core_cache_stats_breakdown[GLOBAL_ACC_W][RESERVATION_FAIL] = 0
	Total_core_cache_stats_breakdown[GLOBAL_ACC_W][SECTOR_MISS] = 0
	Total_core_cache_stats_breakdown[LOCAL_ACC_W][HIT] = 0
	Total_core_cache_stats_breakdown[LOCAL_ACC_W][HIT_RESERVED] = 0
	Total_core_cache_stats_breakdown[LOCAL_ACC_W][MISS] = 0
	Total_core_cache_stats_breakdown[LOCAL_ACC_W][RESERVATION_FAIL] = 0
	Total_core_cache_stats_breakdown[LOCAL_ACC_W][SECTOR_MISS] = 0
	Total_core_cache_stats_breakdown[L1_WRBK_ACC][HIT] = 0
	Total_core_cache_stats_breakdown[L1_WRBK_ACC][HIT_RESERVED] = 0
	Total_core_cache_stats_breakdown[L1_WRBK_ACC][MISS] = 0
	Total_core_cache_stats_breakdown[L1_WRBK_ACC][RESERVATION_FAIL] = 0
	Total_core_cache_stats_breakdown[L1_WRBK_ACC][SECTOR_MISS] = 0
	Total_core_cache_stats_breakdown[L2_WRBK_ACC][HIT] = 0
	Total_core_cache_stats_breakdown[L2_WRBK_ACC][HIT_RESERVED] = 0
	Total_core_cache_stats_breakdown[L2_WRBK_ACC][MISS] = 0
	Total_core_cache_stats_breakdown[L2_WRBK_ACC][RESERVATION_FAIL] = 0
	Total_core_cache_stats_breakdown[L2_WRBK_ACC][SECTOR_MISS] = 0
	Total_core_cache_stats_breakdown[INST_ACC_R][HIT] = 0
	Total_core_cache_stats_breakdown[INST_ACC_R][HIT_RESERVED] = 0
	Total_core_cache_stats_breakdown[INST_ACC_R][MISS] = 0
	Total_core_cache_stats_breakdown[INST_ACC_R][RESERVATION_FAIL] = 0
	Total_core_cache_stats_breakdown[INST_ACC_R][SECTOR_MISS] = 0
	Total_core_cache_stats_breakdown[L1_WR_ALLOC_R][HIT] = 0
	Total_core_cache_stats_breakdown[L1_WR_ALLOC_R][HIT_RESERVED] = 0
	Total_core_cache_stats_breakdown[L1_WR_ALLOC_R][MISS] = 0
	Total_core_cache_stats_breakdown[L1_WR_ALLOC_R][RESERVATION_FAIL] = 0
	Total_core_cache_stats_breakdown[L1_WR_ALLOC_R][SECTOR_MISS] = 0
	Total_core_cache_stats_breakdown[L2_WR_ALLOC_R][HIT] = 0
	Total_core_cache_stats_breakdown[L2_WR_ALLOC_R][HIT_RESERVED] = 0
	Total_core_cache_stats_breakdown[L2_WR_ALLOC_R][MISS] = 0
	Total_core_cache_stats_breakdown[L2_WR_ALLOC_R][RESERVATION_FAIL] = 0
	Total_core_cache_stats_breakdown[L2_WR_ALLOC_R][SECTOR_MISS] = 0

Total_core_cache_fail_stats:
ctas_completed 128, Shader 0 warp_id issue ditsribution:
warp_id:
0, 1, 2, 3, 4, 5, 6, 7, 8, 9, 10, 11, 12, 13, 14, 15, 16, 17, 18, 19, 20, 21, 22, 23, 24, 25, 26, 27, 28, 29, 30, 31, 32, 33, 34, 35, 36, 37, 38, 39, 40, 41, 42, 43, 44, 45, 46, 47, 48, 49, 50, 51, 52, 53, 54, 55, 56, 57, 58, 59, 60, 61, 62, 63, 
distro:
218, 21, 21, 21, 21, 21, 21, 21, 21, 21, 21, 21, 21, 21, 21, 21, 21, 21, 21, 21, 21, 21, 21, 21, 21, 21, 21, 21, 21, 21, 21, 21, 21, 21, 21, 21, 21, 21, 21, 21, 21, 21, 21, 21, 21, 21, 20, 21, 21, 21, 21, 21, 21, 21, 21, 21, 21, 21, 21, 21, 21, 21, 21, 21, 
gpgpu_n_tot_thrd_icount = 1316704
gpgpu_n_tot_w_icount = 41147
gpgpu_n_stall_shd_mem = 0
gpgpu_n_mem_read_local = 0
gpgpu_n_mem_write_local = 0
gpgpu_n_mem_read_global = 2090
gpgpu_n_mem_write_global = 17
gpgpu_n_mem_texture = 0
gpgpu_n_mem_const = 0
gpgpu_n_load_insn  = 65578
gpgpu_n_store_insn = 17
gpgpu_n_shmem_insn = 0
gpgpu_n_sstarr_insn = 0
gpgpu_n_tex_insn = 0
gpgpu_n_const_mem_insn = 0
gpgpu_n_param_mem_insn = 458752
gpgpu_n_shmem_bkconflict = 0
gpgpu_n_cache_bkconflict = 0
gpgpu_n_intrawarp_mshr_merge = 0
gpgpu_n_cmem_portconflict = 0
gpgpu_stall_shd_mem[c_mem][resource_stall] = 0
gpgpu_stall_shd_mem[s_mem][bk_conf] = 0
gpgpu_stall_shd_mem[gl_mem][resource_stall] = 0
gpgpu_stall_shd_mem[gl_mem][coal_stall] = 0
gpgpu_stall_shd_mem[gl_mem][data_port_stall] = 0
gpu_reg_bank_conflict_stalls = 0
Warp Occupancy Distribution:
Stall:27548	W0_Idle:17354	W0_Scoreboard:22802	W1:187	W2:0	W3:0	W4:0	W5:0	W6:0	W7:0	W8:0	W9:0	W10:0	W11:0	W12:0	W13:0	W14:0	W15:0	W16:0	W17:0	W18:0	W19:0	W20:0	W21:0	W22:0	W23:0	W24:0	W25:0	W26:0	W27:0	W28:0	W29:0	W30:0	W31:0	W32:40960
single_issue_nums: WS0:9417	WS1:9256	WS2:9242	WS3:9234	
dual_issue_nums: WS0:505	WS1:492	WS2:499	WS3:503	
traffic_breakdown_coretomem[GLOBAL_ACC_R] = 16720 {8:2090,}
traffic_breakdown_coretomem[GLOBAL_ACC_W] = 680 {40:17,}
traffic_breakdown_memtocore[GLOBAL_ACC_R] = 83600 {40:2090,}
traffic_breakdown_memtocore[GLOBAL_ACC_W] = 136 {8:17,}
maxmflatency = 258 
max_icnt2mem_latency = 14 
maxmrqlatency = 0 
max_icnt2sh_latency = 7 
averagemflatency = 136 
avg_icnt2mem_latency = 7 
avg_mrq_latency = 0 
avg_icnt2sh_latency = 7 
mrq_lat_table:2 	0 	0 	0 	0 	0 	0 	0 	0 	0 	0 	0 	0 	0 	0 	0 	0 	0 	0 	0 	0 	0 	0 	0 	0 	0 	0 	0 	0 	0 	0 	0 	
dq_lat_table:0 	0 	0 	0 	0 	0 	0 	0 	0 	0 	0 	0 	0 	0 	0 	0 	0 	0 	0 	0 	0 	0 	0 	0 	0 	0 	0 	0 	0 	0 	0 	0 	
mf_lat_table:0 	0 	0 	0 	0 	0 	0 	2105 	2 	0 	0 	0 	0 	0 	0 	0 	0 	0 	0 	0 	0 	0 	0 	0 	0 	0 	0 	0 	0 	0 	0 	0 	
icnt2mem_lat_table:0 	0 	1632 	475 	0 	0 	0 	0 	0 	0 	0 	0 	0 	0 	0 	0 	0 	0 	0 	0 	0 	0 	0 	0 	
icnt2sh_lat_table:0 	0 	2107 	0 	0 	0 	0 	0 	0 	0 	0 	0 	0 	0 	0 	0 	0 	0 	0 	0 	0 	0 	0 	0 	
mf_lat_pw_table:0 	0 	0 	0 	0 	0 	0 	11 	0 	0 	0 	0 	0 	0 	0 	0 	0 	0 	0 	0 	0 	0 	0 	0 	0 	0 	0 	0 	0 	0 	0 	0 	
maximum concurrent accesses to same row:
dram[0]:         0         0         0         0         0         0         0         0         0         0         0         0         0         0         0         0 
dram[1]:         0         0         0         0         0         0         0         0         0         0         0         0         0         0         0         0 
dram[2]:         0         0         0         0         0         0         0         0         0         0         0         0         0         0         0         0 
dram[3]:         0         0         0         0         0         0         0         0         0         0         0         0         0         0         0         0 
dram[4]:         0         0         0         0         0         0         0         0         0         0         0         0         0         0         0         0 
dram[5]:         0         0         0         0         0         0         0         0         0         0         0         0         0         0         0         0 
dram[6]:         0         0         0         0         0         0         0         0         0         0         0         0         0         0         0         0 
dram[7]:         0         0         0         0         0         0         0         0         0         0         0         0         0         0         0         0 
dram[8]:         0         0         0         0         0         0         0         0         0         0         0         0         0         0         0         0 
dram[9]:         0         0         0         0         0         0         0         0         0         0         0         0         0         0         0         0 
dram[10]:         0         0         0         0         0         0         0         0         0         0         0         0         0         0         0         0 
dram[11]:         0         0         0         0         0         0         0         0         0         0         0         0         0         0         0         0 
maximum service time to same row:
dram[0]:         0         0         0         0      5981         0         0         0         0         0         0         0         0         0         0         0 
dram[1]:         0         0         0         0         0         0         0         0         0         0         0         0         0         0         0         0 
dram[2]:         0         0         0         0         0         0         0         0         0         0         0         0         0         0         0         0 
dram[3]:         0         0         0         0         0         0         0         0         0         0         0         0         0         0         0         0 
dram[4]:         0         0         0         0         0         0         0         0         0         0         0         0         0         0         0         0 
dram[5]:         0         0         0         0         0         0         0         0         0         0         0         0         0         0         0         0 
dram[6]:         0         0         0         0         0         0         0         0         0         0         0         0         0         0         0         0 
dram[7]:         0         0         0         0         0         0         0         0         0         0         0         0         0         0         0         0 
dram[8]:         0         0         0         0         0         0         0         0         0         0         0         0         0         0         0         0 
dram[9]:         0         0         0         0         0         0         0         0         0         0         0         0         0         0         0         0 
dram[10]:         0         0         0         0         0         0         0         0         0         0         0         0         0         0         0         0 
dram[11]:         0         0         0         0         0         0         0         0         0         0         0         0         0         0         0         0 
average row accesses per activate:
dram[0]:      -nan      -nan      -nan      -nan  1.000000      -nan      -nan      -nan      -nan      -nan      -nan      -nan      -nan      -nan      -nan      -nan 
dram[1]:      -nan      -nan      -nan      -nan      -nan      -nan      -nan      -nan      -nan      -nan      -nan      -nan      -nan      -nan      -nan      -nan 
dram[2]:      -nan      -nan      -nan      -nan      -nan      -nan      -nan      -nan      -nan      -nan      -nan      -nan      -nan      -nan      -nan      -nan 
dram[3]:       inf      -nan      -nan      -nan      -nan      -nan      -nan      -nan      -nan      -nan      -nan      -nan      -nan      -nan      -nan      -nan 
dram[4]:      -nan      -nan      -nan      -nan      -nan      -nan      -nan      -nan      -nan      -nan      -nan      -nan      -nan      -nan      -nan      -nan 
dram[5]:      -nan      -nan      -nan      -nan      -nan      -nan      -nan      -nan      -nan      -nan      -nan      -nan      -nan      -nan      -nan      -nan 
dram[6]:      -nan      -nan      -nan      -nan      -nan      -nan      -nan      -nan      -nan      -nan      -nan      -nan      -nan      -nan      -nan      -nan 
dram[7]:      -nan      -nan      -nan      -nan      -nan      -nan      -nan      -nan      -nan      -nan      -nan      -nan      -nan      -nan      -nan      -nan 
dram[8]:      -nan      -nan      -nan      -nan      -nan      -nan      -nan      -nan      -nan      -nan      -nan      -nan      -nan      -nan      -nan      -nan 
dram[9]:      -nan      -nan      -nan      -nan      -nan      -nan      -nan      -nan      -nan      -nan      -nan      -nan      -nan      -nan      -nan      -nan 
dram[10]:      -nan      -nan      -nan      -nan      -nan      -nan      -nan      -nan      -nan      -nan      -nan      -nan      -nan      -nan      -nan      -nan 
dram[11]:      -nan      -nan      -nan      -nan      -nan      -nan      -nan      -nan      -nan      -nan      -nan      -nan      -nan      -nan      -nan      -nan 
average row locality = 2/1 = 2.000000
number of total memory accesses made:
dram[0]:         0         0         0         0         0         0         0         0         0         0         0         0         0         0         0         0 
dram[1]:         0         0         0         0         0         0         0         0         0         0         0         0         0         0         0         0 
dram[2]:         0         0         0         0         0         0         0         0         0         0         0         0         0         0         0         0 
dram[3]:         0         0         0         0         0         0         0         0         0         0         0         0         0         0         0         0 
dram[4]:         0         0         0         0         0         0         0         0         0         0         0         0         0         0         0         0 
dram[5]:         0         0         0         0         0         0         0         0         0         0         0         0         0         0         0         0 
dram[6]:         0         0         0         0         0         0         0         0         0         0         0         0         0         0         0         0 
dram[7]:         0         0         0         0         0         0         0         0         0         0         0         0         0         0         0         0 
dram[8]:         0         0         0         0         0         0         0         0         0         0         0         0         0         0         0         0 
dram[9]:         0         0         0         0         0         0         0         0         0         0         0         0         0         0         0         0 
dram[10]:         0         0         0         0         0         0         0         0         0         0         0         0         0         0         0         0 
dram[11]:         0         0         0         0         0         0         0         0         0         0         0         0         0         0         0         0 
total accesses: 0
min_bank_accesses = 0!
min_chip_accesses = 0!
number of total read accesses:
dram[0]:         0         0         0         0         1         0         0         0         0         0         0         0         0         0         0         0 
dram[1]:         0         0         0         0         0         0         0         0         0         0         0         0         0         0         0         0 
dram[2]:         0         0         0         0         0         0         0         0         0         0         0         0         0         0         0         0 
dram[3]:         1         0         0         0         0         0         0         0         0         0         0         0         0         0         0         0 
dram[4]:         0         0         0         0         0         0         0         0         0         0         0         0         0         0         0         0 
dram[5]:         0         0         0         0         0         0         0         0         0         0         0         0         0         0         0         0 
dram[6]:         0         0         0         0         0         0         0         0         0         0         0         0         0         0         0         0 
dram[7]:         0         0         0         0         0         0         0         0         0         0         0         0         0         0         0         0 
dram[8]:         0         0         0         0         0         0         0         0         0         0         0         0         0         0         0         0 
dram[9]:         0         0         0         0         0         0         0         0         0         0         0         0         0         0         0         0 
dram[10]:         0         0         0         0         0         0         0         0         0         0         0         0         0         0         0         0 
dram[11]:         0         0         0         0         0         0         0         0         0         0         0         0         0         0         0         0 
total dram reads = 2
min_bank_accesses = 0!
min_chip_accesses = 0!
number of total write accesses:
dram[0]:         0         0         0         0         0         0         0         0         0         0         0         0         0         0         0         0 
dram[1]:         0         0         0         0         0         0         0         0         0         0         0         0         0         0         0         0 
dram[2]:         0         0         0         0         0         0         0         0         0         0         0         0         0         0         0         0 
dram[3]:         0         0         0         0         0         0         0         0         0         0         0         0         0         0         0         0 
dram[4]:         0         0         0         0         0         0         0         0         0         0         0         0         0         0         0         0 
dram[5]:         0         0         0         0         0         0         0         0         0         0         0         0         0         0         0         0 
dram[6]:         0         0         0         0         0         0         0         0         0         0         0         0         0         0         0         0 
dram[7]:         0         0         0         0         0         0         0         0         0         0         0         0         0         0         0         0 
dram[8]:         0         0         0         0         0         0         0         0         0         0         0         0         0         0         0         0 
dram[9]:         0         0         0         0         0         0         0         0         0         0         0         0         0         0         0         0 
dram[10]:         0         0         0         0         0         0         0         0         0         0         0         0         0         0         0         0 
dram[11]:         0         0         0         0         0         0         0         0         0         0         0         0         0         0         0         0 
total dram writes = 0
min_bank_accesses = 0!
min_chip_accesses = 0!
average mf latency per bank:
dram[0]:     none      none      none      none        3944    none      none      none      none      none      none      none      none      none      none      none  
dram[1]:     none      none      none      none      none      none      none      none      none      none      none      none      none      none      none      none  
dram[2]:     none      none      none      none      none      none      none      none      none      none      none      none      none      none      none      none  
dram[3]:       2570    none      none      none      none      none      none      none      none      none      none      none      none      none      none      none  
dram[4]:     none      none      none      none      none      none      none      none      none      none      none      none      none      none      none      none  
dram[5]:     none      none      none      none      none      none      none      none      none      none      none      none      none      none      none      none  
dram[6]:     none      none      none      none      none      none      none      none      none      none      none      none      none      none      none      none  
dram[7]:     none      none      none      none      none      none      none      none      none      none      none      none      none      none      none      none  
dram[8]:     none      none      none      none      none      none      none      none      none      none      none      none      none      none      none      none  
dram[9]:     none      none      none      none      none      none      none      none      none      none      none      none      none      none      none      none  
dram[10]:     none      none      none      none      none      none      none      none      none      none      none      none      none      none      none      none  
dram[11]:     none      none      none      none      none      none      none      none      none      none      none      none      none      none      none      none  
maximum mf latency per bank:
dram[0]:          0         0         0         0       258       140       137       138         0         0         0         0         0         0         0         0
dram[1]:        136         0         0         0       138       137       137       137         0         0         0       136       136       136         0         0
dram[2]:          0         0         0         0         0       137       137       143       136         0         0         0         0       136         0       136
dram[3]:        258         0         0         0       138       139       138       137         0         0         0         0         0         0         0         0
dram[4]:        136         0         0         0       140       137       137       139       136         0       136         0         0         0         0         0
dram[5]:          0         0         0         0       138       136       139       137         0         0       136         0         0         0         0         0
dram[6]:          0         0         0         0       138       137       137       140         0       136         0         0       136         0         0         0
dram[7]:          0         0         0         0       140       139       139       139         0         0       136         0         0         0         0         0
dram[8]:          0         0         0       136       138       136       137       136         0         0         0         0       136         0       136         0
dram[9]:          0         0         0       136       141       138       142       137       136       136         0       136         0         0         0         0
dram[10]:          0         0         0         0       138       137       142       138       136         0         0         0         0         0         0         0
dram[11]:          0         0         0         0       136       137       137       137         0         0       136         0         0         0         0         0
Memory Partition 0: 
Cache L2_bank_000:
MSHR contents

Cache L2_bank_001:
MSHR contents

In Dram Latency Queue (total = 0): 
DRAM[0]: 16 bks, busW=4 BL=8 CL=16, tRRD=8 tCCD=2, tRCD=16 tRAS=37 tRP=16 tRC=52
n_cmd=19300 n_nop=19298 n_act=1 n_pre=0 n_ref_event=94206722280096 n_req=1 n_rd=1 n_rd_L2_A=0 n_write=0 n_wr_bk=0 bw_util=0.0001036
n_activity=52 dram_eff=0.03846
bk0: 0a 19300i bk1: 0a 19301i bk2: 0a 19301i bk3: 0a 19301i bk4: 1a 19284i bk5: 0a 19299i bk6: 0a 19299i bk7: 0a 19299i bk8: 0a 19299i bk9: 0a 19300i bk10: 0a 19300i bk11: 0a 19300i bk12: 0a 19300i bk13: 0a 19300i bk14: 0a 19300i bk15: 0a 19300i 

------------------------------------------------------------------------

Row_Buffer_Locality = 0.000000
Row_Buffer_Locality_read = 0.000000
Row_Buffer_Locality_write = -nan
Bank_Level_Parallism = 1.000000
Bank_Level_Parallism_Col = 0.670542
Bank_Level_Parallism_Ready = 1.000000
write_to_read_ratio_blp_rw_average = 0.000000
GrpLevelPara = 0.000000 

BW Util details:
bwutil = 0.000104 
total_CMD = 19300 
util_bw = 2 
Wasted_Col = 16 
Wasted_Row = 0 
Idle = 19282 

BW Util Bottlenecks: 
RCDc_limit = 16 
RCDWRc_limit = 0 
WTRc_limit = 0 
RTWc_limit = 0 
CCDLc_limit = 0 
rwq = 0 
CCDLc_limit_alone = 0 
WTRc_limit_alone = 0 
RTWc_limit_alone = 0 

Commands details: 
total_CMD = 19300 
n_nop = 19298 
Read = 1 
Write = 0 
L2_Alloc = 0 
L2_WB = 0 
n_act = 1 
n_pre = 0 
n_ref = 94206722280096 
n_req = 1 
total_req = 1 

Dual Bus Interface Util: 
issued_total_row = 1 
issued_total_col = 1 
Row_Bus_Util =  0.000052 
CoL_Bus_Util = 0.000052 
Either_Row_CoL_Bus_Util = 0.000104 
Issued_on_Two_Bus_Simul_Util = 0.000000 
issued_two_Eff = 0.000000 
queue_avg = 0.000000 


dram_util_bins: 0 0 0 0 0 0 0 0 0 0
dram_eff_bins: 0 0 0 0 0 0 0 0 0 0
mrqq: max=0 avg=0
Memory Partition 1: 
Cache L2_bank_002:
MSHR contents

Cache L2_bank_003:
MSHR contents

In Dram Latency Queue (total = 0): 
DRAM[1]: 16 bks, busW=4 BL=8 CL=16, tRRD=8 tCCD=2, tRCD=16 tRAS=37 tRP=16 tRC=52
n_cmd=19300 n_nop=19300 n_act=0 n_pre=0 n_ref_event=0 n_req=0 n_rd=0 n_rd_L2_A=0 n_write=0 n_wr_bk=0 bw_util=0
n_activity=0 dram_eff=-nan
bk0: 0a 19300i bk1: 0a 19300i bk2: 0a 19300i bk3: 0a 19300i bk4: 0a 19300i bk5: 0a 19300i bk6: 0a 19300i bk7: 0a 19300i bk8: 0a 19300i bk9: 0a 19300i bk10: 0a 19300i bk11: 0a 19300i bk12: 0a 19300i bk13: 0a 19300i bk14: 0a 19300i bk15: 0a 19300i 

------------------------------------------------------------------------

Row_Buffer_Locality = -nan
Row_Buffer_Locality_read = -nan
Row_Buffer_Locality_write = -nan
Bank_Level_Parallism = -nan
Bank_Level_Parallism_Col = 1.004530
Bank_Level_Parallism_Ready = -nan
write_to_read_ratio_blp_rw_average = 0.000000
GrpLevelPara = 0.000000 

BW Util details:
bwutil = 0.000000 
total_CMD = 19300 
util_bw = 0 
Wasted_Col = 0 
Wasted_Row = 0 
Idle = 19300 

BW Util Bottlenecks: 
RCDc_limit = 0 
RCDWRc_limit = 0 
WTRc_limit = 0 
RTWc_limit = 0 
CCDLc_limit = 0 
rwq = 0 
CCDLc_limit_alone = 0 
WTRc_limit_alone = 0 
RTWc_limit_alone = 0 

Commands details: 
total_CMD = 19300 
n_nop = 19300 
Read = 0 
Write = 0 
L2_Alloc = 0 
L2_WB = 0 
n_act = 0 
n_pre = 0 
n_ref = 0 
n_req = 0 
total_req = 0 

Dual Bus Interface Util: 
issued_total_row = 0 
issued_total_col = 0 
Row_Bus_Util =  0.000000 
CoL_Bus_Util = 0.000000 
Either_Row_CoL_Bus_Util = 0.000000 
Issued_on_Two_Bus_Simul_Util = 0.000000 
issued_two_Eff = -nan 
queue_avg = 0.000000 


dram_util_bins: 0 0 0 0 0 0 0 0 0 0
dram_eff_bins: 0 0 0 0 0 0 0 0 0 0
mrqq: max=0 avg=0
Memory Partition 2: 
Cache L2_bank_004:
MSHR contents

Cache L2_bank_005:
MSHR contents

In Dram Latency Queue (total = 0): 
DRAM[2]: 16 bks, busW=4 BL=8 CL=16, tRRD=8 tCCD=2, tRCD=16 tRAS=37 tRP=16 tRC=52
n_cmd=19300 n_nop=19300 n_act=0 n_pre=0 n_ref_event=0 n_req=0 n_rd=0 n_rd_L2_A=0 n_write=0 n_wr_bk=0 bw_util=0
n_activity=0 dram_eff=-nan
bk0: 0a 19300i bk1: 0a 19300i bk2: 0a 19300i bk3: 0a 19300i bk4: 0a 19300i bk5: 0a 19300i bk6: 0a 19300i bk7: 0a 19300i bk8: 0a 19300i bk9: 0a 19300i bk10: 0a 19300i bk11: 0a 19300i bk12: 0a 19300i bk13: 0a 19300i bk14: 0a 19300i bk15: 0a 19300i 

------------------------------------------------------------------------

Row_Buffer_Locality = -nan
Row_Buffer_Locality_read = -nan
Row_Buffer_Locality_write = -nan
Bank_Level_Parallism = -nan
Bank_Level_Parallism_Col = -nan
Bank_Level_Parallism_Ready = -nan
write_to_read_ratio_blp_rw_average = -nan
GrpLevelPara = -nan 

BW Util details:
bwutil = 0.000000 
total_CMD = 19300 
util_bw = 0 
Wasted_Col = 0 
Wasted_Row = 0 
Idle = 19300 

BW Util Bottlenecks: 
RCDc_limit = 0 
RCDWRc_limit = 0 
WTRc_limit = 0 
RTWc_limit = 0 
CCDLc_limit = 0 
rwq = 0 
CCDLc_limit_alone = 0 
WTRc_limit_alone = 0 
RTWc_limit_alone = 0 

Commands details: 
total_CMD = 19300 
n_nop = 19300 
Read = 0 
Write = 0 
L2_Alloc = 0 
L2_WB = 0 
n_act = 0 
n_pre = 0 
n_ref = 0 
n_req = 0 
total_req = 0 

Dual Bus Interface Util: 
issued_total_row = 0 
issued_total_col = 0 
Row_Bus_Util =  0.000000 
CoL_Bus_Util = 0.000000 
Either_Row_CoL_Bus_Util = 0.000000 
Issued_on_Two_Bus_Simul_Util = 0.000000 
issued_two_Eff = -nan 
queue_avg = 0.000000 


dram_util_bins: 0 0 0 0 0 0 0 0 0 0
dram_eff_bins: 0 0 0 0 0 0 0 0 0 0
mrqq: max=0 avg=0
Memory Partition 3: 
Cache L2_bank_006:
MSHR contents

Cache L2_bank_007:
MSHR contents

In Dram Latency Queue (total = 0): 
DRAM[3]: 16 bks, busW=4 BL=8 CL=16, tRRD=8 tCCD=2, tRCD=16 tRAS=37 tRP=16 tRC=52
n_cmd=19300 n_nop=19298 n_act=1 n_pre=0 n_ref_event=0 n_req=1 n_rd=1 n_rd_L2_A=0 n_write=0 n_wr_bk=0 bw_util=0.0001036
n_activity=52 dram_eff=0.03846
bk0: 1a 19284i bk1: 0a 19300i bk2: 0a 19300i bk3: 0a 19300i bk4: 0a 19300i bk5: 0a 19300i bk6: 0a 19300i bk7: 0a 19300i bk8: 0a 19300i bk9: 0a 19300i bk10: 0a 19300i bk11: 0a 19300i bk12: 0a 19300i bk13: 0a 19300i bk14: 0a 19300i bk15: 0a 19300i 

------------------------------------------------------------------------

Row_Buffer_Locality = 1.000000
Row_Buffer_Locality_read = 1.000000
Row_Buffer_Locality_write = -nan
Bank_Level_Parallism = 1.000000
Bank_Level_Parallism_Col = 0.984813
Bank_Level_Parallism_Ready = 1.000000
write_to_read_ratio_blp_rw_average = 0.000000
GrpLevelPara = 0.000000 

BW Util details:
bwutil = 0.000104 
total_CMD = 19300 
util_bw = 2 
Wasted_Col = 16 
Wasted_Row = 0 
Idle = 19282 

BW Util Bottlenecks: 
RCDc_limit = 16 
RCDWRc_limit = 0 
WTRc_limit = 0 
RTWc_limit = 0 
CCDLc_limit = 0 
rwq = 0 
CCDLc_limit_alone = 0 
WTRc_limit_alone = 0 
RTWc_limit_alone = 0 

Commands details: 
total_CMD = 19300 
n_nop = 19298 
Read = 1 
Write = 0 
L2_Alloc = 0 
L2_WB = 0 
n_act = 1 
n_pre = 0 
n_ref = 0 
n_req = 1 
total_req = 1 

Dual Bus Interface Util: 
issued_total_row = 1 
issued_total_col = 1 
Row_Bus_Util =  0.000052 
CoL_Bus_Util = 0.000052 
Either_Row_CoL_Bus_Util = 0.000104 
Issued_on_Two_Bus_Simul_Util = 0.000000 
issued_two_Eff = 0.000000 
queue_avg = 0.000000 


dram_util_bins: 0 0 0 0 0 0 0 0 0 0
dram_eff_bins: 0 0 0 0 0 0 0 0 0 0
mrqq: max=0 avg=0
Memory Partition 4: 
Cache L2_bank_008:
MSHR contents

Cache L2_bank_009:
MSHR contents

In Dram Latency Queue (total = 0): 
DRAM[4]: 16 bks, busW=4 BL=8 CL=16, tRRD=8 tCCD=2, tRCD=16 tRAS=37 tRP=16 tRC=52
n_cmd=19300 n_nop=19300 n_act=0 n_pre=0 n_ref_event=0 n_req=0 n_rd=0 n_rd_L2_A=0 n_write=0 n_wr_bk=0 bw_util=0
n_activity=0 dram_eff=-nan
bk0: 0a 19300i bk1: 0a 19300i bk2: 0a 19300i bk3: 0a 19300i bk4: 0a 19300i bk5: 0a 19300i bk6: 0a 19300i bk7: 0a 19300i bk8: 0a 19300i bk9: 0a 19300i bk10: 0a 19300i bk11: 0a 19300i bk12: 0a 19300i bk13: 0a 19300i bk14: 0a 19300i bk15: 0a 19300i 

------------------------------------------------------------------------

Row_Buffer_Locality = -nan
Row_Buffer_Locality_read = -nan
Row_Buffer_Locality_write = -nan
Bank_Level_Parallism = -nan
Bank_Level_Parallism_Col = -nan
Bank_Level_Parallism_Ready = -nan
write_to_read_ratio_blp_rw_average = -nan
GrpLevelPara = -nan 

BW Util details:
bwutil = 0.000000 
total_CMD = 19300 
util_bw = 0 
Wasted_Col = 0 
Wasted_Row = 0 
Idle = 19300 

BW Util Bottlenecks: 
RCDc_limit = 0 
RCDWRc_limit = 0 
WTRc_limit = 0 
RTWc_limit = 0 
CCDLc_limit = 0 
rwq = 0 
CCDLc_limit_alone = 0 
WTRc_limit_alone = 0 
RTWc_limit_alone = 0 

Commands details: 
total_CMD = 19300 
n_nop = 19300 
Read = 0 
Write = 0 
L2_Alloc = 0 
L2_WB = 0 
n_act = 0 
n_pre = 0 
n_ref = 0 
n_req = 0 
total_req = 0 

Dual Bus Interface Util: 
issued_total_row = 0 
issued_total_col = 0 
Row_Bus_Util =  0.000000 
CoL_Bus_Util = 0.000000 
Either_Row_CoL_Bus_Util = 0.000000 
Issued_on_Two_Bus_Simul_Util = 0.000000 
issued_two_Eff = -nan 
queue_avg = 0.000000 


dram_util_bins: 0 0 0 0 0 0 0 0 0 0
dram_eff_bins: 0 0 0 0 0 0 0 0 0 0
mrqq: max=0 avg=0
Memory Partition 5: 
Cache L2_bank_010:
MSHR contents

Cache L2_bank_011:
MSHR contents

In Dram Latency Queue (total = 0): 
DRAM[5]: 16 bks, busW=4 BL=8 CL=16, tRRD=8 tCCD=2, tRCD=16 tRAS=37 tRP=16 tRC=52
n_cmd=19300 n_nop=19300 n_act=0 n_pre=0 n_ref_event=0 n_req=0 n_rd=0 n_rd_L2_A=0 n_write=0 n_wr_bk=0 bw_util=0
n_activity=0 dram_eff=-nan
bk0: 0a 19300i bk1: 0a 19300i bk2: 0a 19300i bk3: 0a 19300i bk4: 0a 19300i bk5: 0a 19300i bk6: 0a 19300i bk7: 0a 19300i bk8: 0a 19300i bk9: 0a 19300i bk10: 0a 19300i bk11: 0a 19300i bk12: 0a 19300i bk13: 0a 19300i bk14: 0a 19300i bk15: 0a 19300i 

------------------------------------------------------------------------

Row_Buffer_Locality = -nan
Row_Buffer_Locality_read = -nan
Row_Buffer_Locality_write = -nan
Bank_Level_Parallism = -nan
Bank_Level_Parallism_Col = -nan
Bank_Level_Parallism_Ready = -nan
write_to_read_ratio_blp_rw_average = -nan
GrpLevelPara = -nan 

BW Util details:
bwutil = 0.000000 
total_CMD = 19300 
util_bw = 0 
Wasted_Col = 0 
Wasted_Row = 0 
Idle = 19300 

BW Util Bottlenecks: 
RCDc_limit = 0 
RCDWRc_limit = 0 
WTRc_limit = 0 
RTWc_limit = 0 
CCDLc_limit = 0 
rwq = 0 
CCDLc_limit_alone = 0 
WTRc_limit_alone = 0 
RTWc_limit_alone = 0 

Commands details: 
total_CMD = 19300 
n_nop = 19300 
Read = 0 
Write = 0 
L2_Alloc = 0 
L2_WB = 0 
n_act = 0 
n_pre = 0 
n_ref = 0 
n_req = 0 
total_req = 0 

Dual Bus Interface Util: 
issued_total_row = 0 
issued_total_col = 0 
Row_Bus_Util =  0.000000 
CoL_Bus_Util = 0.000000 
Either_Row_CoL_Bus_Util = 0.000000 
Issued_on_Two_Bus_Simul_Util = 0.000000 
issued_two_Eff = -nan 
queue_avg = 0.000000 


dram_util_bins: 0 0 0 0 0 0 0 0 0 0
dram_eff_bins: 0 0 0 0 0 0 0 0 0 0
mrqq: max=0 avg=0
Memory Partition 6: 
Cache L2_bank_012:
MSHR contents

Cache L2_bank_013:
MSHR contents

In Dram Latency Queue (total = 0): 
DRAM[6]: 16 bks, busW=4 BL=8 CL=16, tRRD=8 tCCD=2, tRCD=16 tRAS=37 tRP=16 tRC=52
n_cmd=19300 n_nop=19300 n_act=0 n_pre=0 n_ref_event=0 n_req=0 n_rd=0 n_rd_L2_A=0 n_write=0 n_wr_bk=0 bw_util=0
n_activity=0 dram_eff=-nan
bk0: 0a 19300i bk1: 0a 19300i bk2: 0a 19300i bk3: 0a 19300i bk4: 0a 19300i bk5: 0a 19300i bk6: 0a 19300i bk7: 0a 19300i bk8: 0a 19300i bk9: 0a 19300i bk10: 0a 19300i bk11: 0a 19300i bk12: 0a 19300i bk13: 0a 19300i bk14: 0a 19300i bk15: 0a 19300i 

------------------------------------------------------------------------

Row_Buffer_Locality = -nan
Row_Buffer_Locality_read = -nan
Row_Buffer_Locality_write = -nan
Bank_Level_Parallism = -nan
Bank_Level_Parallism_Col = -nan
Bank_Level_Parallism_Ready = -nan
write_to_read_ratio_blp_rw_average = -nan
GrpLevelPara = -nan 

BW Util details:
bwutil = 0.000000 
total_CMD = 19300 
util_bw = 0 
Wasted_Col = 0 
Wasted_Row = 0 
Idle = 19300 

BW Util Bottlenecks: 
RCDc_limit = 0 
RCDWRc_limit = 0 
WTRc_limit = 0 
RTWc_limit = 0 
CCDLc_limit = 0 
rwq = 0 
CCDLc_limit_alone = 0 
WTRc_limit_alone = 0 
RTWc_limit_alone = 0 

Commands details: 
total_CMD = 19300 
n_nop = 19300 
Read = 0 
Write = 0 
L2_Alloc = 0 
L2_WB = 0 
n_act = 0 
n_pre = 0 
n_ref = 0 
n_req = 0 
total_req = 0 

Dual Bus Interface Util: 
issued_total_row = 0 
issued_total_col = 0 
Row_Bus_Util =  0.000000 
CoL_Bus_Util = 0.000000 
Either_Row_CoL_Bus_Util = 0.000000 
Issued_on_Two_Bus_Simul_Util = 0.000000 
issued_two_Eff = -nan 
queue_avg = 0.000000 


dram_util_bins: 0 0 0 0 0 0 0 0 0 0
dram_eff_bins: 0 0 0 0 0 0 0 0 0 0
mrqq: max=0 avg=0
Memory Partition 7: 
Cache L2_bank_014:
MSHR contents

Cache L2_bank_015:
MSHR contents

In Dram Latency Queue (total = 0): 
DRAM[7]: 16 bks, busW=4 BL=8 CL=16, tRRD=8 tCCD=2, tRCD=16 tRAS=37 tRP=16 tRC=52
n_cmd=19300 n_nop=19300 n_act=0 n_pre=0 n_ref_event=0 n_req=0 n_rd=0 n_rd_L2_A=0 n_write=0 n_wr_bk=0 bw_util=0
n_activity=0 dram_eff=-nan
bk0: 0a 19300i bk1: 0a 19300i bk2: 0a 19300i bk3: 0a 19300i bk4: 0a 19300i bk5: 0a 19300i bk6: 0a 19300i bk7: 0a 19300i bk8: 0a 19300i bk9: 0a 19300i bk10: 0a 19300i bk11: 0a 19300i bk12: 0a 19300i bk13: 0a 19300i bk14: 0a 19300i bk15: 0a 19300i 

------------------------------------------------------------------------

Row_Buffer_Locality = -nan
Row_Buffer_Locality_read = -nan
Row_Buffer_Locality_write = -nan
Bank_Level_Parallism = -nan
Bank_Level_Parallism_Col = -nan
Bank_Level_Parallism_Ready = -nan
write_to_read_ratio_blp_rw_average = -nan
GrpLevelPara = -nan 

BW Util details:
bwutil = 0.000000 
total_CMD = 19300 
util_bw = 0 
Wasted_Col = 0 
Wasted_Row = 0 
Idle = 19300 

BW Util Bottlenecks: 
RCDc_limit = 0 
RCDWRc_limit = 0 
WTRc_limit = 0 
RTWc_limit = 0 
CCDLc_limit = 0 
rwq = 0 
CCDLc_limit_alone = 0 
WTRc_limit_alone = 0 
RTWc_limit_alone = 0 

Commands details: 
total_CMD = 19300 
n_nop = 19300 
Read = 0 
Write = 0 
L2_Alloc = 0 
L2_WB = 0 
n_act = 0 
n_pre = 0 
n_ref = 0 
n_req = 0 
total_req = 0 

Dual Bus Interface Util: 
issued_total_row = 0 
issued_total_col = 0 
Row_Bus_Util =  0.000000 
CoL_Bus_Util = 0.000000 
Either_Row_CoL_Bus_Util = 0.000000 
Issued_on_Two_Bus_Simul_Util = 0.000000 
issued_two_Eff = -nan 
queue_avg = 0.000000 


dram_util_bins: 0 0 0 0 0 0 0 0 0 0
dram_eff_bins: 0 0 0 0 0 0 0 0 0 0
mrqq: max=0 avg=0
Memory Partition 8: 
Cache L2_bank_016:
MSHR contents

Cache L2_bank_017:
MSHR contents

In Dram Latency Queue (total = 0): 
DRAM[8]: 16 bks, busW=4 BL=8 CL=16, tRRD=8 tCCD=2, tRCD=16 tRAS=37 tRP=16 tRC=52
n_cmd=19300 n_nop=19300 n_act=0 n_pre=0 n_ref_event=0 n_req=0 n_rd=0 n_rd_L2_A=0 n_write=0 n_wr_bk=0 bw_util=0
n_activity=0 dram_eff=-nan
bk0: 0a 19300i bk1: 0a 19300i bk2: 0a 19300i bk3: 0a 19300i bk4: 0a 19300i bk5: 0a 19300i bk6: 0a 19300i bk7: 0a 19300i bk8: 0a 19300i bk9: 0a 19300i bk10: 0a 19300i bk11: 0a 19300i bk12: 0a 19300i bk13: 0a 19300i bk14: 0a 19300i bk15: 0a 19300i 

------------------------------------------------------------------------

Row_Buffer_Locality = -nan
Row_Buffer_Locality_read = -nan
Row_Buffer_Locality_write = -nan
Bank_Level_Parallism = -nan
Bank_Level_Parallism_Col = -nan
Bank_Level_Parallism_Ready = -nan
write_to_read_ratio_blp_rw_average = -nan
GrpLevelPara = -nan 

BW Util details:
bwutil = 0.000000 
total_CMD = 19300 
util_bw = 0 
Wasted_Col = 0 
Wasted_Row = 0 
Idle = 19300 

BW Util Bottlenecks: 
RCDc_limit = 0 
RCDWRc_limit = 0 
WTRc_limit = 0 
RTWc_limit = 0 
CCDLc_limit = 0 
rwq = 0 
CCDLc_limit_alone = 0 
WTRc_limit_alone = 0 
RTWc_limit_alone = 0 

Commands details: 
total_CMD = 19300 
n_nop = 19300 
Read = 0 
Write = 0 
L2_Alloc = 0 
L2_WB = 0 
n_act = 0 
n_pre = 0 
n_ref = 0 
n_req = 0 
total_req = 0 

Dual Bus Interface Util: 
issued_total_row = 0 
issued_total_col = 0 
Row_Bus_Util =  0.000000 
CoL_Bus_Util = 0.000000 
Either_Row_CoL_Bus_Util = 0.000000 
Issued_on_Two_Bus_Simul_Util = 0.000000 
issued_two_Eff = -nan 
queue_avg = 0.000000 


dram_util_bins: 0 0 0 0 0 0 0 0 0 0
dram_eff_bins: 0 0 0 0 0 0 0 0 0 0
mrqq: max=0 avg=0
Memory Partition 9: 
Cache L2_bank_018:
MSHR contents

Cache L2_bank_019:
MSHR contents

In Dram Latency Queue (total = 0): 
DRAM[9]: 16 bks, busW=4 BL=8 CL=16, tRRD=8 tCCD=2, tRCD=16 tRAS=37 tRP=16 tRC=52
n_cmd=19300 n_nop=19300 n_act=0 n_pre=0 n_ref_event=0 n_req=0 n_rd=0 n_rd_L2_A=0 n_write=0 n_wr_bk=0 bw_util=0
n_activity=0 dram_eff=-nan
bk0: 0a 19300i bk1: 0a 19300i bk2: 0a 19300i bk3: 0a 19300i bk4: 0a 19300i bk5: 0a 19300i bk6: 0a 19300i bk7: 0a 19300i bk8: 0a 19300i bk9: 0a 19300i bk10: 0a 19300i bk11: 0a 19300i bk12: 0a 19300i bk13: 0a 19300i bk14: 0a 19300i bk15: 0a 19300i 

------------------------------------------------------------------------

Row_Buffer_Locality = -nan
Row_Buffer_Locality_read = -nan
Row_Buffer_Locality_write = -nan
Bank_Level_Parallism = -nan
Bank_Level_Parallism_Col = -nan
Bank_Level_Parallism_Ready = -nan
write_to_read_ratio_blp_rw_average = -nan
GrpLevelPara = -nan 

BW Util details:
bwutil = 0.000000 
total_CMD = 19300 
util_bw = 0 
Wasted_Col = 0 
Wasted_Row = 0 
Idle = 19300 

BW Util Bottlenecks: 
RCDc_limit = 0 
RCDWRc_limit = 0 
WTRc_limit = 0 
RTWc_limit = 0 
CCDLc_limit = 0 
rwq = 0 
CCDLc_limit_alone = 0 
WTRc_limit_alone = 0 
RTWc_limit_alone = 0 

Commands details: 
total_CMD = 19300 
n_nop = 19300 
Read = 0 
Write = 0 
L2_Alloc = 0 
L2_WB = 0 
n_act = 0 
n_pre = 0 
n_ref = 0 
n_req = 0 
total_req = 0 

Dual Bus Interface Util: 
issued_total_row = 0 
issued_total_col = 0 
Row_Bus_Util =  0.000000 
CoL_Bus_Util = 0.000000 
Either_Row_CoL_Bus_Util = 0.000000 
Issued_on_Two_Bus_Simul_Util = 0.000000 
issued_two_Eff = -nan 
queue_avg = 0.000000 


dram_util_bins: 0 0 0 0 0 0 0 0 0 0
dram_eff_bins: 0 0 0 0 0 0 0 0 0 0
mrqq: max=0 avg=0
Memory Partition 10: 
Cache L2_bank_020:
MSHR contents

Cache L2_bank_021:
MSHR contents

In Dram Latency Queue (total = 0): 
DRAM[10]: 16 bks, busW=4 BL=8 CL=16, tRRD=8 tCCD=2, tRCD=16 tRAS=37 tRP=16 tRC=52
n_cmd=19300 n_nop=19300 n_act=0 n_pre=0 n_ref_event=0 n_req=0 n_rd=0 n_rd_L2_A=0 n_write=0 n_wr_bk=0 bw_util=0
n_activity=0 dram_eff=-nan
bk0: 0a 19300i bk1: 0a 19300i bk2: 0a 19300i bk3: 0a 19300i bk4: 0a 19300i bk5: 0a 19300i bk6: 0a 19300i bk7: 0a 19300i bk8: 0a 19300i bk9: 0a 19300i bk10: 0a 19300i bk11: 0a 19300i bk12: 0a 19300i bk13: 0a 19300i bk14: 0a 19300i bk15: 0a 19300i 

------------------------------------------------------------------------

Row_Buffer_Locality = -nan
Row_Buffer_Locality_read = -nan
Row_Buffer_Locality_write = -nan
Bank_Level_Parallism = -nan
Bank_Level_Parallism_Col = -nan
Bank_Level_Parallism_Ready = -nan
write_to_read_ratio_blp_rw_average = -nan
GrpLevelPara = -nan 

BW Util details:
bwutil = 0.000000 
total_CMD = 19300 
util_bw = 0 
Wasted_Col = 0 
Wasted_Row = 0 
Idle = 19300 

BW Util Bottlenecks: 
RCDc_limit = 0 
RCDWRc_limit = 0 
WTRc_limit = 0 
RTWc_limit = 0 
CCDLc_limit = 0 
rwq = 0 
CCDLc_limit_alone = 0 
WTRc_limit_alone = 0 
RTWc_limit_alone = 0 

Commands details: 
total_CMD = 19300 
n_nop = 19300 
Read = 0 
Write = 0 
L2_Alloc = 0 
L2_WB = 0 
n_act = 0 
n_pre = 0 
n_ref = 0 
n_req = 0 
total_req = 0 

Dual Bus Interface Util: 
issued_total_row = 0 
issued_total_col = 0 
Row_Bus_Util =  0.000000 
CoL_Bus_Util = 0.000000 
Either_Row_CoL_Bus_Util = 0.000000 
Issued_on_Two_Bus_Simul_Util = 0.000000 
issued_two_Eff = -nan 
queue_avg = 0.000000 


dram_util_bins: 0 0 0 0 0 0 0 0 0 0
dram_eff_bins: 0 0 0 0 0 0 0 0 0 0
mrqq: max=0 avg=0
Memory Partition 11: 
Cache L2_bank_022:
MSHR contents

Cache L2_bank_023:
MSHR contents

In Dram Latency Queue (total = 0): 
DRAM[11]: 16 bks, busW=4 BL=8 CL=16, tRRD=8 tCCD=2, tRCD=16 tRAS=37 tRP=16 tRC=52
n_cmd=19300 n_nop=19300 n_act=0 n_pre=0 n_ref_event=0 n_req=0 n_rd=0 n_rd_L2_A=0 n_write=0 n_wr_bk=0 bw_util=0
n_activity=0 dram_eff=-nan
bk0: 0a 19300i bk1: 0a 19300i bk2: 0a 19300i bk3: 0a 19300i bk4: 0a 19300i bk5: 0a 19300i bk6: 0a 19300i bk7: 0a 19300i bk8: 0a 19300i bk9: 0a 19300i bk10: 0a 19300i bk11: 0a 19300i bk12: 0a 19300i bk13: 0a 19300i bk14: 0a 19300i bk15: 0a 19300i 

------------------------------------------------------------------------

Row_Buffer_Locality = -nan
Row_Buffer_Locality_read = -nan
Row_Buffer_Locality_write = -nan
Bank_Level_Parallism = -nan
Bank_Level_Parallism_Col = -nan
Bank_Level_Parallism_Ready = -nan
write_to_read_ratio_blp_rw_average = -nan
GrpLevelPara = -nan 

BW Util details:
bwutil = 0.000000 
total_CMD = 19300 
util_bw = 0 
Wasted_Col = 0 
Wasted_Row = 0 
Idle = 19300 

BW Util Bottlenecks: 
RCDc_limit = 0 
RCDWRc_limit = 0 
WTRc_limit = 0 
RTWc_limit = 0 
CCDLc_limit = 0 
rwq = 0 
CCDLc_limit_alone = 0 
WTRc_limit_alone = 0 
RTWc_limit_alone = 0 

Commands details: 
total_CMD = 19300 
n_nop = 19300 
Read = 0 
Write = 0 
L2_Alloc = 0 
L2_WB = 0 
n_act = 0 
n_pre = 0 
n_ref = 0 
n_req = 0 
total_req = 0 

Dual Bus Interface Util: 
issued_total_row = 0 
issued_total_col = 0 
Row_Bus_Util =  0.000000 
CoL_Bus_Util = 0.000000 
Either_Row_CoL_Bus_Util = 0.000000 
Issued_on_Two_Bus_Simul_Util = 0.000000 
issued_two_Eff = -nan 
queue_avg = 0.000000 


dram_util_bins: 0 0 0 0 0 0 0 0 0 0
dram_eff_bins: 0 0 0 0 0 0 0 0 0 0
mrqq: max=0 avg=0

========= L2 cache stats =========
L2_cache_bank[0]: Access = 100, Miss = 0, Miss_rate = 0.000, Pending_hits = 0, Reservation_fails = 0
L2_cache_bank[1]: Access = 89, Miss = 1, Miss_rate = 0.011, Pending_hits = 0, Reservation_fails = 0
L2_cache_bank[2]: Access = 67, Miss = 0, Miss_rate = 0.000, Pending_hits = 0, Reservation_fails = 0
L2_cache_bank[3]: Access = 65, Miss = 0, Miss_rate = 0.000, Pending_hits = 0, Reservation_fails = 0
L2_cache_bank[4]: Access = 78, Miss = 0, Miss_rate = 0.000, Pending_hits = 0, Reservation_fails = 0
L2_cache_bank[5]: Access = 93, Miss = 0, Miss_rate = 0.000, Pending_hits = 0, Reservation_fails = 0
L2_cache_bank[6]: Access = 92, Miss = 0, Miss_rate = 0.000, Pending_hits = 0, Reservation_fails = 0
L2_cache_bank[7]: Access = 118, Miss = 1, Miss_rate = 0.008, Pending_hits = 0, Reservation_fails = 0
L2_cache_bank[8]: Access = 98, Miss = 0, Miss_rate = 0.000, Pending_hits = 0, Reservation_fails = 0
L2_cache_bank[9]: Access = 73, Miss = 0, Miss_rate = 0.000, Pending_hits = 0, Reservation_fails = 0
[...]
queue_avg = 0.019624 


dram_util_bins: 0 0 0 0 0 0 0 0 0 0
dram_eff_bins: 0 0 0 0 0 0 0 0 0 0
mrqq: max=6 avg=0.0196237
Memory Partition 6: 
Cache L2_bank_012:
MSHR contents

Cache L2_bank_013:
MSHR contents

In Dram Latency Queue (total = 0): 
DRAM[6]: 16 bks, busW=4 BL=8 CL=16, tRRD=8 tCCD=2, tRCD=16 tRAS=37 tRP=16 tRC=52
n_cmd=535424 n_nop=531271 n_act=824 n_pre=808 n_ref_event=0 n_req=2380 n_rd=2322 n_rd_L2_A=0 n_write=0 n_wr_bk=216 bw_util=0.00948
n_activity=47813 dram_eff=0.1062
bk0: 230a 532198i bk1: 210a 532505i bk2: 135a 533091i bk3: 134a 533145i bk4: 108a 533977i bk5: 125a 534494i bk6: 225a 532882i bk7: 214a 532720i bk8: 189a 532895i bk9: 160a 533095i bk10: 72a 534390i bk11: 85a 534059i bk12: 70a 534431i bk13: 65a 534564i bk14: 219a 532828i bk15: 81a 533972i 

------------------------------------------------------------------------

Row_Buffer_Locality = 0.659244
Row_Buffer_Locality_read = 0.670973
Row_Buffer_Locality_write = 0.189655
Bank_Level_Parallism = 1.226231
Bank_Level_Parallism_Col = 1.129042
Bank_Level_Parallism_Ready = 1.014920
write_to_read_ratio_blp_rw_average = 0.080678
GrpLevelPara = 1.104989 

BW Util details:
bwutil = 0.009480 
total_CMD = 535424 
util_bw = 5076 
Wasted_Col = 13271 
Wasted_Row = 9806 
Idle = 507271 

BW Util Bottlenecks: 
RCDc_limit = 11720 
RCDWRc_limit = 342 
WTRc_limit = 353 
RTWc_limit = 619 
CCDLc_limit = 1967 
rwq = 0 
CCDLc_limit_alone = 1927 
WTRc_limit_alone = 343 
RTWc_limit_alone = 589 

Commands details: 
total_CMD = 535424 
n_nop = 531271 
Read = 2322 
Write = 0 
L2_Alloc = 0 
L2_WB = 216 
n_act = 824 
n_pre = 808 
n_ref = 0 
n_req = 2380 
total_req = 2538 

Dual Bus Interface Util: 
issued_total_row = 1632 
issued_total_col = 2538 
Row_Bus_Util =  0.003048 
CoL_Bus_Util = 0.004740 
Either_Row_CoL_Bus_Util = 0.007756 
Issued_on_Two_Bus_Simul_Util = 0.000032 
issued_two_Eff = 0.004093 
queue_avg = 0.033671 


dram_util_bins: 0 0 0 0 0 0 0 0 0 0
dram_eff_bins: 0 0 0 0 0 0 0 0 0 0
mrqq: max=8 avg=0.0336705
Memory Partition 7: 
Cache L2_bank_014:
MSHR contents

Cache L2_bank_015:
MSHR contents

In Dram Latency Queue (total = 0): 
DRAM[7]: 16 bks, busW=4 BL=8 CL=16, tRRD=8 tCCD=2, tRCD=16 tRAS=37 tRP=16 tRC=52
n_cmd=535424 n_nop=530813 n_act=937 n_pre=921 n_ref_event=0 n_req=2568 n_rd=2494 n_rd_L2_A=0 n_write=0 n_wr_bk=274 bw_util=0.01034
n_activity=51193 dram_eff=0.1081
bk0: 209a 532441i bk1: 141a 533100i bk2: 250a 532401i bk3: 184a 533212i bk4: 161a 533164i bk5: 170a 532322i bk6: 103a 533863i bk7: 142a 532995i bk8: 106a 533972i bk9: 111a 533982i bk10: 172a 532849i bk11: 135a 533384i bk12: 163a 533076i bk13: 106a 533943i bk14: 201a 532351i bk15: 140a 533572i 

------------------------------------------------------------------------

Row_Buffer_Locality = 0.640576
Row_Buffer_Locality_read = 0.654771
Row_Buffer_Locality_write = 0.162162
Bank_Level_Parallism = 1.264827
Bank_Level_Parallism_Col = 1.142107
Bank_Level_Parallism_Ready = 1.022629
write_to_read_ratio_blp_rw_average = 0.088273
GrpLevelPara = 1.114932 

BW Util details:
bwutil = 0.010339 
total_CMD = 535424 
util_bw = 5536 
Wasted_Col = 14870 
Wasted_Row = 10649 
Idle = 504369 

BW Util Bottlenecks: 
RCDc_limit = 13117 
RCDWRc_limit = 477 
WTRc_limit = 527 
RTWc_limit = 691 
CCDLc_limit = 2300 
rwq = 0 
CCDLc_limit_alone = 2204 
WTRc_limit_alone = 489 
RTWc_limit_alone = 633 

Commands details: 
total_CMD = 535424 
n_nop = 530813 
Read = 2494 
Write = 0 
L2_Alloc = 0 
L2_WB = 274 
n_act = 937 
n_pre = 921 
n_ref = 0 
n_req = 2568 
total_req = 2768 

Dual Bus Interface Util: 
issued_total_row = 1858 
issued_total_col = 2768 
Row_Bus_Util =  0.003470 
CoL_Bus_Util = 0.005170 
Either_Row_CoL_Bus_Util = 0.008612 
Issued_on_Two_Bus_Simul_Util = 0.000028 
issued_two_Eff = 0.003253 
queue_avg = 0.038244 


dram_util_bins: 0 0 0 0 0 0 0 0 0 0
dram_eff_bins: 0 0 0 0 0 0 0 0 0 0
mrqq: max=9 avg=0.0382445
Memory Partition 8: 
Cache L2_bank_016:
MSHR contents

Cache L2_bank_017:
MSHR contents

In Dram Latency Queue (total = 0): 
DRAM[8]: 16 bks, busW=4 BL=8 CL=16, tRRD=8 tCCD=2, tRCD=16 tRAS=37 tRP=16 tRC=52
n_cmd=535424 n_nop=532310 n_act=665 n_pre=649 n_ref_event=0 n_req=1730 n_rd=1704 n_rd_L2_A=0 n_write=0 n_wr_bk=100 bw_util=0.006739
n_activity=40511 dram_eff=0.08906
bk0: 119a 533738i bk1: 77a 534441i bk2: 49a 535019i bk3: 52a 534811i bk4: 85a 534344i bk5: 158a 533755i bk6: 226a 531899i bk7: 215a 531760i bk8: 60a 534113i bk9: 84a 534028i bk10: 22a 535322i bk11: 19a 535132i bk12: 114a 534098i bk13: 86a 534101i bk14: 198a 532407i bk15: 140a 533366i 

------------------------------------------------------------------------

Row_Buffer_Locality = 0.622543
Row_Buffer_Locality_read = 0.630282
Row_Buffer_Locality_write = 0.115385
Bank_Level_Parallism = 1.156959
Bank_Level_Parallism_Col = 1.085381
Bank_Level_Parallism_Ready = 1.015435
write_to_read_ratio_blp_rw_average = 0.049976
GrpLevelPara = 1.069313 

BW Util details:
bwutil = 0.006739 
total_CMD = 535424 
util_bw = 3608 
Wasted_Col = 10720 
Wasted_Row = 8652 
Idle = 512444 

BW Util Bottlenecks: 
RCDc_limit = 9828 
RCDWRc_limit = 185 
WTRc_limit = 98 
RTWc_limit = 239 
CCDLc_limit = 1301 
rwq = 0 
CCDLc_limit_alone = 1282 
WTRc_limit_alone = 90 
RTWc_limit_alone = 228 

Commands details: 
total_CMD = 535424 
n_nop = 532310 
Read = 1704 
Write = 0 
L2_Alloc = 0 
L2_WB = 100 
n_act = 665 
n_pre = 649 
n_ref = 0 
n_req = 1730 
total_req = 1804 

Dual Bus Interface Util: 
issued_total_row = 1314 
issued_total_col = 1804 
Row_Bus_Util =  0.002454 
CoL_Bus_Util = 0.003369 
Either_Row_CoL_Bus_Util = 0.005816 
Issued_on_Two_Bus_Simul_Util = 0.000007 
issued_two_Eff = 0.001285 
queue_avg = 0.023972 


dram_util_bins: 0 0 0 0 0 0 0 0 0 0
dram_eff_bins: 0 0 0 0 0 0 0 0 0 0
mrqq: max=6 avg=0.0239717
Memory Partition 9: 
Cache L2_bank_018:
MSHR contents

Cache L2_bank_019:
MSHR contents

In Dram Latency Queue (total = 0): 
DRAM[9]: 16 bks, busW=4 BL=8 CL=16, tRRD=8 tCCD=2, tRCD=16 tRAS=37 tRP=16 tRC=52
n_cmd=535424 n_nop=531212 n_act=806 n_pre=790 n_ref_event=0 n_req=2441 n_rd=2371 n_rd_L2_A=0 n_write=0 n_wr_bk=252 bw_util=0.009798
n_activity=48040 dram_eff=0.1092
bk0: 188a 532438i bk1: 111a 534052i bk2: 163a 533361i bk3: 220a 532611i bk4: 153a 533176i bk5: 90a 534146i bk6: 152a 533115i bk7: 180a 533082i bk8: 41a 534860i bk9: 122a 533547i bk10: 223a 532767i bk11: 278a 531929i bk12: 72a 534704i bk13: 77a 534377i bk14: 214a 532870i bk15: 87a 534260i 

------------------------------------------------------------------------

Row_Buffer_Locality = 0.675952
Row_Buffer_Locality_read = 0.684943
Row_Buffer_Locality_write = 0.371429
Bank_Level_Parallism = 1.217781
Bank_Level_Parallism_Col = 1.128012
Bank_Level_Parallism_Ready = 1.026976
write_to_read_ratio_blp_rw_average = 0.092919
GrpLevelPara = 1.098954 

BW Util details:
bwutil = 0.009798 
total_CMD = 535424 
util_bw = 5246 
Wasted_Col = 13493 
Wasted_Row = 9672 
Idle = 507013 

BW Util Bottlenecks: 
RCDc_limit = 11533 
RCDWRc_limit = 324 
WTRc_limit = 443 
RTWc_limit = 728 
CCDLc_limit = 2228 
rwq = 0 
CCDLc_limit_alone = 2177 
WTRc_limit_alone = 412 
RTWc_limit_alone = 708 

Commands details: 
total_CMD = 535424 
n_nop = 531212 
Read = 2371 
Write = 0 
L2_Alloc = 0 
L2_WB = 252 
n_act = 806 
n_pre = 790 
n_ref = 0 
n_req = 2441 
total_req = 2623 

Dual Bus Interface Util: 
issued_total_row = 1596 
issued_total_col = 2623 
Row_Bus_Util =  0.002981 
CoL_Bus_Util = 0.004899 
Either_Row_CoL_Bus_Util = 0.007867 
Issued_on_Two_Bus_Simul_Util = 0.000013 
issued_two_Eff = 0.001662 
queue_avg = 0.035835 


dram_util_bins: 0 0 0 0 0 0 0 0 0 0
dram_eff_bins: 0 0 0 0 0 0 0 0 0 0
mrqq: max=7 avg=0.0358352
Memory Partition 10: 
Cache L2_bank_020:
MSHR contents

Cache L2_bank_021:
MSHR contents

In Dram Latency Queue (total = 0): 
DRAM[10]: 16 bks, busW=4 BL=8 CL=16, tRRD=8 tCCD=2, tRCD=16 tRAS=37 tRP=16 tRC=52
n_cmd=535424 n_nop=529269 n_act=1272 n_pre=1256 n_ref_event=0 n_req=3442 n_rd=3364 n_rd_L2_A=0 n_write=0 n_wr_bk=293 bw_util=0.01366
n_activity=67759 dram_eff=0.1079
bk0: 136a 533783i bk1: 190a 533096i bk2: 217a 532512i bk3: 184a 533253i bk4: 243a 531683i bk5: 144a 533312i bk6: 389a 529164i bk7: 337a 529708i bk8: 83a 533994i bk9: 199a 532915i bk10: 189a 532956i bk11: 182a 532338i bk12: 192a 532917i bk13: 155a 533375i bk14: 235a 531457i bk15: 289a 531435i 

------------------------------------------------------------------------

Row_Buffer_Locality = 0.634515
Row_Buffer_Locality_read = 0.645065
Row_Buffer_Locality_write = 0.179487
Bank_Level_Parallism = 1.285412
Bank_Level_Parallism_Col = 1.161970
Bank_Level_Parallism_Ready = 1.037168
write_to_read_ratio_blp_rw_average = 0.071568
GrpLevelPara = 1.128979 

BW Util details:
bwutil = 0.013660 
total_CMD = 535424 
util_bw = 7314 
Wasted_Col = 19590 
Wasted_Row = 14373 
Idle = 494147 

BW Util Bottlenecks: 
RCDc_limit = 17804 
RCDWRc_limit = 480 
WTRc_limit = 623 
RTWc_limit = 743 
CCDLc_limit = 2803 
rwq = 0 
CCDLc_limit_alone = 2741 
WTRc_limit_alone = 591 
RTWc_limit_alone = 713 

Commands details: 
total_CMD = 535424 
n_nop = 529269 
Read = 3364 
Write = 0 
L2_Alloc = 0 
L2_WB = 293 
n_act = 1272 
n_pre = 1256 
n_ref = 0 
n_req = 3442 
total_req = 3657 

Dual Bus Interface Util: 
issued_total_row = 2528 
issued_total_col = 3657 
Row_Bus_Util =  0.004721 
CoL_Bus_Util = 0.006830 
Either_Row_CoL_Bus_Util = 0.011496 
Issued_on_Two_Bus_Simul_Util = 0.000056 
issued_two_Eff = 0.004874 
queue_avg = 0.050674 


dram_util_bins: 0 0 0 0 0 0 0 0 0 0
dram_eff_bins: 0 0 0 0 0 0 0 0 0 0
mrqq: max=9 avg=0.0506739
Memory Partition 11: 
Cache L2_bank_022:
MSHR contents

Cache L2_bank_023:
MSHR contents

In Dram Latency Queue (total = 0): 
DRAM[11]: 16 bks, busW=4 BL=8 CL=16, tRRD=8 tCCD=2, tRCD=16 tRAS=37 tRP=16 tRC=52
n_cmd=535424 n_nop=533460 n_act=383 n_pre=367 n_ref_event=0 n_req=1138 n_rd=1112 n_rd_L2_A=0 n_write=0 n_wr_bk=102 bw_util=0.004535
n_activity=25707 dram_eff=0.09445
bk0: 25a 534943i bk1: 89a 534522i bk2: 51a 535031i bk3: 78a 534943i bk4: 36a 535228i bk5: 124a 533185i bk6: 116a 533775i bk7: 82a 534217i bk8: 53a 534463i bk9: 88a 534270i bk10: 56a 535072i bk11: 14a 535228i bk12: 65a 534759i bk13: 69a 534270i bk14: 68a 534340i bk15: 98a 534318i 

------------------------------------------------------------------------

Row_Buffer_Locality = 0.673989
Row_Buffer_Locality_read = 0.687050
Row_Buffer_Locality_write = 0.115385
Bank_Level_Parallism = 1.125911
Bank_Level_Parallism_Col = 1.075045
Bank_Level_Parallism_Ready = 1.013969
write_to_read_ratio_blp_rw_average = 0.079136
GrpLevelPara = 1.062834 

BW Util details:
bwutil = 0.004535 
total_CMD = 535424 
util_bw = 2428 
Wasted_Col = 6487 
Wasted_Row = 5053 
Idle = 521456 

BW Util Bottlenecks: 
RCDc_limit = 5569 
RCDWRc_limit = 190 
WTRc_limit = 153 
RTWc_limit = 192 
CCDLc_limit = 921 
rwq = 0 
CCDLc_limit_alone = 909 
WTRc_limit_alone = 149 
RTWc_limit_alone = 184 

Commands details: 
total_CMD = 535424 
n_nop = 533460 
Read = 1112 
Write = 0 
L2_Alloc = 0 
L2_WB = 102 
n_act = 383 
n_pre = 367 
n_ref = 0 
n_req = 1138 
total_req = 1214 

Dual Bus Interface Util: 
issued_total_row = 750 
issued_total_col = 1214 
Row_Bus_Util =  0.001401 
CoL_Bus_Util = 0.002267 
Either_Row_CoL_Bus_Util = 0.003668 
Issued_on_Two_Bus_Simul_Util = 0.000000 
issued_two_Eff = 0.000000 
queue_avg = 0.014904 


dram_util_bins: 0 0 0 0 0 0 0 0 0 0
dram_eff_bins: 0 0 0 0 0 0 0 0 0 0
mrqq: max=6 avg=0.0149041

========= L2 cache stats =========
L2_cache_bank[0]: Access = 67541, Miss = 1170, Miss_rate = 0.017, Pending_hits = 91, Reservation_fails = 0
L2_cache_bank[1]: Access = 62694, Miss = 1396, Miss_rate = 0.022, Pending_hits = 129, Reservation_fails = 0
L2_cache_bank[2]: Access = 70744, Miss = 2494, Miss_rate = 0.035, Pending_hits = 157, Reservation_fails = 0
L2_cache_bank[3]: Access = 52095, Miss = 1197, Miss_rate = 0.023, Pending_hits = 79, Reservation_fails = 0
L2_cache_bank[4]: Access = 70552, Miss = 2025, Miss_rate = 0.029, Pending_hits = 238, Reservation_fails = 0
L2_cache_bank[5]: Access = 55858, Miss = 1561, Miss_rate = 0.028, Pending_hits = 93, Reservation_fails = 0
L2_cache_bank[6]: Access = 63944, Miss = 1093, Miss_rate = 0.017, Pending_hits = 87, Reservation_fails = 0
L2_cache_bank[7]: Access = 64820, Miss = 1256, Miss_rate = 0.019, Pending_hits = 89, Reservation_fails = 0
L2_cache_bank[8]: Access = 75325, Miss = 1596, Miss_rate = 0.021, Pending_hits = 84, Reservation_fails = 0
L2_cache_bank[9]: Access = 50395, Miss = 1113, Miss_rate = 0.022, Pending_hits = 113, Reservation_fails = 0
L2_cache_bank[10]: Access = 60144, Miss = 552, Miss_rate = 0.009, Pending_hits = 28, Reservation_fails = 0
L2_cache_bank[11]: Access = 57168, Miss = 1044, Miss_rate = 0.018, Pending_hits = 117, Reservation_fails = 0
L2_cache_bank[12]: Access = 55950, Miss = 1100, Miss_rate = 0.020, Pending_hits = 98, Reservation_fails = 0
L2_cache_bank[13]: Access = 67387, Miss = 1357, Miss_rate = 0.020, Pending_hits = 149, Reservation_fails = 0
L2_cache_bank[14]: Access = 54004, Miss = 892, Miss_rate = 0.017, Pending_hits = 42, Reservation_fails = 0
L2_cache_bank[15]: Access = 60988, Miss = 2191, Miss_rate = 0.036, Pending_hits = 198, Reservation_fails = 0
L2_cache_bank[16]: Access = 61534, Miss = 981, Miss_rate = 0.016, Pending_hits = 71, Reservation_fails = 0
L2_cache_bank[17]: Access = 60229, Miss = 781, Miss_rate = 0.013, Pending_hits = 60, Reservation_fails = 0
L2_cache_bank[18]: Access = 64780, Miss = 2708, Miss_rate = 0.042, Pending_hits = 194, Reservation_fails = 0
L2_cache_bank[19]: Access = 61674, Miss = 842, Miss_rate = 0.014, Pending_hits = 65, Reservation_fails = 0
L2_cache_bank[20]: Access = 64276, Miss = 2175, Miss_rate = 0.034, Pending_hits = 208, Reservation_fails = 0
L2_cache_bank[21]: Access = 69645, Miss = 1597, Miss_rate = 0.023, Pending_hits = 110, Reservation_fails = 0
L2_cache_bank[22]: Access = 63783, Miss = 1080, Miss_rate = 0.017, Pending_hits = 98, Reservation_fails = 0
L2_cache_bank[23]: Access = 51485, Miss = 183, Miss_rate = 0.004, Pending_hits = 0, Reservation_fails = 0
L2_total_cache_accesses = 1487015
L2_total_cache_misses = 32384
L2_total_cache_miss_rate = 0.0218
L2_total_cache_pending_hits = 2598
L2_total_cache_reservation_fails = 0
L2_total_cache_breakdown:
	L2_cache_stats_breakdown[GLOBAL_ACC_R][HIT] = 1161664
	L2_cache_stats_breakdown[GLOBAL_ACC_R][HIT_RESERVED] = 2578
	L2_cache_stats_breakdown[GLOBAL_ACC_R][MISS] = 9770
	L2_cache_stats_breakdown[GLOBAL_ACC_R][RESERVATION_FAIL] = 0
	L2_cache_stats_breakdown[GLOBAL_ACC_R][SECTOR_MISS] = 17640
	L2_cache_stats_breakdown[LOCAL_ACC_R][HIT] = 0
	L2_cache_stats_breakdown[LOCAL_ACC_R][HIT_RESERVED] = 0
	L2_cache_stats_breakdown[LOCAL_ACC_R][MISS] = 0
	L2_cache_stats_breakdown[LOCAL_ACC_R][RESERVATION_FAIL] = 0
	L2_cache_stats_breakdown[LOCAL_ACC_R][SECTOR_MISS] = 0
	L2_cache_stats_breakdown[CONST_ACC_R][HIT] = 0
	L2_cache_stats_breakdown[CONST_ACC_R][HIT_RESERVED] = 0
	L2_cache_stats_breakdown[CONST_ACC_R][MISS] = 0
	L2_cache_stats_breakdown[CONST_ACC_R][RESERVATION_FAIL] = 0
	L2_cache_stats_breakdown[CONST_ACC_R][SECTOR_MISS] = 0
	L2_cache_stats_breakdown[TEXTURE_ACC_R][HIT] = 0
	L2_cache_stats_breakdown[TEXTURE_ACC_R][HIT_RESERVED] = 0
	L2_cache_stats_breakdown[TEXTURE_ACC_R][MISS] = 0
	L2_cache_stats_breakdown[TEXTURE_ACC_R][RESERVATION_FAIL] = 0
	L2_cache_stats_breakdown[TEXTURE_ACC_R][SECTOR_MISS] = 0
	L2_cache_stats_breakdown[GLOBAL_ACC_W][HIT] = 290369
	L2_cache_stats_breakdown[GLOBAL_ACC_W][HIT_RESERVED] = 20
	L2_cache_stats_breakdown[GLOBAL_ACC_W][MISS] = 388
	L2_cache_stats_breakdown[GLOBAL_ACC_W][RESERVATION_FAIL] = 0
	L2_cache_stats_breakdown[GLOBAL_ACC_W][SECTOR_MISS] = 4586
	L2_cache_stats_breakdown[LOCAL_ACC_W][HIT] = 0
	L2_cache_stats_breakdown[LOCAL_ACC_W][HIT_RESERVED] = 0
	L2_cache_stats_breakdown[LOCAL_ACC_W][MISS] = 0
	L2_cache_stats_breakdown[LOCAL_ACC_W][RESERVATION_FAIL] = 0
	L2_cache_stats_breakdown[LOCAL_ACC_W][SECTOR_MISS] = 0
	L2_cache_stats_breakdown[L1_WRBK_ACC][HIT] = 0
	L2_cache_stats_breakdown[L1_WRBK_ACC][HIT_RESERVED] = 0
	L2_cache_stats_breakdown[L1_WRBK_ACC][MISS] = 0
	L2_cache_stats_breakdown[L1_WRBK_ACC][RESERVATION_FAIL] = 0
	L2_cache_stats_breakdown[L1_WRBK_ACC][SECTOR_MISS] = 0
	L2_cache_stats_breakdown[L2_WRBK_ACC][HIT] = 0
	L2_cache_stats_breakdown[L2_WRBK_ACC][HIT_RESERVED] = 0
	L2_cache_stats_breakdown[L2_WRBK_ACC][MISS] = 0
	L2_cache_stats_breakdown[L2_WRBK_ACC][RESERVATION_FAIL] = 0
	L2_cache_stats_breakdown[L2_WRBK_ACC][SECTOR_MISS] = 0
	L2_cache_stats_breakdown[INST_ACC_R][HIT] = 0
	L2_cache_stats_breakdown[INST_ACC_R][HIT_RESERVED] = 0
	L2_cache_stats_breakdown[INST_ACC_R][MISS] = 0
	L2_cache_stats_breakdown[INST_ACC_R][RESERVATION_FAIL] = 0
	L2_cache_stats_breakdown[INST_ACC_R][SECTOR_MISS] = 0
	L2_cache_stats_breakdown[L1_WR_ALLOC_R][HIT] = 0
	L2_cache_stats_breakdown[L1_WR_ALLOC_R][HIT_RESERVED] = 0
	L2_cache_stats_breakdown[L1_WR_ALLOC_R][MISS] = 0
	L2_cache_stats_breakdown[L1_WR_ALLOC_R][RESERVATION_FAIL] = 0
	L2_cache_stats_breakdown[L1_WR_ALLOC_R][SECTOR_MISS] = 0
	L2_cache_stats_breakdown[L2_WR_ALLOC_R][HIT] = 0
	L2_cache_stats_breakdown[L2_WR_ALLOC_R][HIT_RESERVED] = 0
	L2_cache_stats_breakdown[L2_WR_ALLOC_R][MISS] = 0
	L2_cache_stats_breakdown[L2_WR_ALLOC_R][RESERVATION_FAIL] = 0
	L2_cache_stats_breakdown[L2_WR_ALLOC_R][SECTOR_MISS] = 0
	L2_cache_stats_breakdown[GLOBAL_ACC_R][TOTAL_ACCESS] = 1191652
	L2_cache_stats_breakdown[GLOBAL_ACC_W][TOTAL_ACCESS] = 295363
L2_total_cache_reservation_fail_breakdown:
L2_cache_data_port_util = 0.199
L2_cache_fill_port_util = 0.004

icnt_total_pkts_mem_to_simt=1487015
icnt_total_pkts_simt_to_mem=1487015
LD_mem_lat_dist  0 0 0 0 0 0 0 0 0 0 0 0 0 0 0 0 0 0 0 0 0 0 0 0 0 0 0
ST_mem_lat_dist  0 0 0 0 0 0 0 0 0 0 0 0 0 0 0 0 0 0 0 0 0 0 0 0 0 0 0
----------------------------Interconnect-DETAILS--------------------------------
Class 0:
Packet latency average = 5.13599
	minimum = 5
	maximum = 10
Network latency average = 5.13599
	minimum = 5
	maximum = 10
Slowest packet = 2970289
Flit latency average = 5.13599
	minimum = 5
	maximum = 10
Slowest flit = 2970289
Fragmentation average = 0
	minimum = 0
	maximum = 0
Injected packet rate average = 0.0138996
	minimum = 0.0112935 (at node 0)
	maximum = 0.0218811 (at node 43)
Accepted packet rate average = 0.0138996
	minimum = 0.0112935 (at node 0)
	maximum = 0.0218811 (at node 43)
Injected flit rate average = 0.0138996
	minimum = 0.0112935 (at node 0)
	maximum = 0.0218811 (at node 43)
Accepted flit rate average= 0.0138996
	minimum = 0.0112935 (at node 0)
	maximum = 0.0218811 (at node 43)
Injected packet length average = 1
Accepted packet length average = 1
Total in-flight flits = 0 (0 measured)
====== Overall Traffic Statistics ======
====== Traffic class 0 ======
Packet latency average = 81.7734 (20 samples)
	minimum = 5 (20 samples)
	maximum = 403.35 (20 samples)
Network latency average = 47.5327 (20 samples)
	minimum = 5 (20 samples)
	maximum = 261.9 (20 samples)
Flit latency average = 47.5327 (20 samples)
	minimum = 5 (20 samples)
	maximum = 261.9 (20 samples)
Fragmentation average = 0 (20 samples)
	minimum = 0 (20 samples)
	maximum = 0 (20 samples)
Injected packet rate average = 0.078246 (20 samples)
	minimum = 0.0588275 (20 samples)
	maximum = 0.157592 (20 samples)
Accepted packet rate average = 0.078246 (20 samples)
	minimum = 0.0588275 (20 samples)
	maximum = 0.157592 (20 samples)
Injected flit rate average = 0.078246 (20 samples)
	minimum = 0.0588275 (20 samples)
	maximum = 0.157592 (20 samples)
Accepted flit rate average = 0.078246 (20 samples)
	minimum = 0.0588275 (20 samples)
	maximum = 0.157592 (20 samples)
Injected packet size average = 1 (20 samples)
Accepted packet size average = 1 (20 samples)
Hops average = 1 (20 samples)
----------------------------END-of-Interconnect-DETAILS-------------------------


gpgpu_simulation_time = 0 days, 0 hrs, 2 min, 26 sec (146 sec)
gpgpu_simulation_rate = 210711 (inst/sec)
gpgpu_simulation_rate = 2078 (cycle/sec)
gpgpu_silicon_slowdown = 681905x
Kernel Executed 10 times
Result stored in result.txt
GPGPU-Sim: *** exit detected ***
