

        *** GPGPU-Sim Simulator Version 4.0.0  [build gpgpu-sim_git-commit-90ec3399763d7c8512cfe7dc193473086c38ca38_modified_0.0] ***


GPGPU-Sim PTX: simulation mode 0 (can change with PTX_SIM_MODE_FUNC environment variable:
               1=functional simulation only, 0=detailed performance simulator)
GPGPU-Sim PTX: overriding embedded ptx with ptx file (PTX_SIM_USE_PTX_FILE is set)
GPGPU-Sim: Configuration options:

-save_embedded_ptx                      0 # saves ptx files embedded in binary as <n>.ptx
-keep                                   0 # keep intermediate files created by GPGPU-Sim when interfacing with external programs
-gpgpu_ptx_save_converted_ptxplus                    0 # Saved converted ptxplus to a file
-gpgpu_occupancy_sm_number                   20 # The SM number to pass to ptxas when getting register usage for computing GPU occupancy. This parameter is required in the config.
-ptx_opcode_latency_int      4,13,4,5,145,32 # Opcode latencies for integers <ADD,MAX,MUL,MAD,DIV,SHFL>Default 1,1,19,25,145,32
-ptx_opcode_latency_fp          4,13,4,5,39 # Opcode latencies for single precision floating points <ADD,MAX,MUL,MAD,DIV>Default 1,1,1,1,30
-ptx_opcode_latency_dp         8,19,8,8,330 # Opcode latencies for double precision floating points <ADD,MAX,MUL,MAD,DIV>Default 8,8,8,8,335
-ptx_opcode_latency_sfu                    8 # Opcode latencies for SFU instructionsDefault 8
-ptx_opcode_latency_tesnor                   64 # Opcode latencies for Tensor instructionsDefault 64
-ptx_opcode_initiation_int          1,2,2,1,8,4 # Opcode initiation intervals for integers <ADD,MAX,MUL,MAD,DIV,SHFL>Default 1,1,4,4,32,4
-ptx_opcode_initiation_fp            1,2,1,1,4 # Opcode initiation intervals for single precision floating points <ADD,MAX,MUL,MAD,DIV>Default 1,1,1,1,5
-ptx_opcode_initiation_dp         8,16,8,8,130 # Opcode initiation intervals for double precision floating points <ADD,MAX,MUL,MAD,DIV>Default 8,8,8,8,130
-ptx_opcode_initiation_sfu                    8 # Opcode initiation intervals for sfu instructionsDefault 8
-ptx_opcode_initiation_tensor                   64 # Opcode initiation intervals for tensor instructionsDefault 64
-cdp_latency         7200,8000,100,12000,1600 # CDP API latency <cudaStreamCreateWithFlags, cudaGetParameterBufferV2_init_perWarp, cudaGetParameterBufferV2_perKernel, cudaLaunchDeviceV2_init_perWarp, cudaLaunchDevicV2_perKernel>Default 7200,8000,100,12000,1600
-network_mode                           1 # Interconnection network mode
-inter_config_file   config_fermi_islip.icnt # Interconnection network config file
-icnt_in_buffer_limit                   64 # in_buffer_limit
-icnt_out_buffer_limit                   64 # out_buffer_limit
-icnt_subnets                           2 # subnets
-icnt_arbiter_algo                      1 # arbiter_algo
-icnt_verbose                           0 # inct_verbose
-icnt_grant_cycles                      1 # grant_cycles
-gpgpu_ptx_use_cuobjdump                    1 # Use cuobjdump to extract ptx and sass from binaries
-gpgpu_experimental_lib_support                    0 # Try to extract code from cuda libraries [Broken because of unknown cudaGetExportTable]
-checkpoint_option                      0 #  checkpointing flag (0 = no checkpoint)
-checkpoint_kernel                      1 #  checkpointing during execution of which kernel (1- 1st kernel)
-checkpoint_CTA                         0 #  checkpointing after # of CTA (< less than total CTA)
-resume_option                          0 #  resume flag (0 = no resume)
-resume_kernel                          0 #  Resume from which kernel (1= 1st kernel)
-resume_CTA                             0 #  resume from which CTA 
-checkpoint_CTA_t                       0 #  resume from which CTA 
-checkpoint_insn_Y                      0 #  resume from which CTA 
-gpgpu_ptx_convert_to_ptxplus                    0 # Convert SASS (native ISA) to ptxplus and run ptxplus
-gpgpu_ptx_force_max_capability                   20 # Force maximum compute capability
-gpgpu_ptx_inst_debug_to_file                    0 # Dump executed instructions' debug information to file
-gpgpu_ptx_inst_debug_file       inst_debug.txt # Executed instructions' debug output file
-gpgpu_ptx_inst_debug_thread_uid                    1 # Thread UID for executed instructions' debug output
-gpgpu_simd_model                       1 # 1 = post-dominator
-gpgpu_shader_core_pipeline              1536:32 # shader core pipeline config, i.e., {<nthread>:<warpsize>}
-gpgpu_tex_cache:l1  N:4:128:24,L:R:m:N:L,T:128:4,128:2 # per-shader L1 texture cache  (READ-ONLY) config  {<nsets>:<bsize>:<assoc>,<rep>:<wr>:<alloc>:<wr_alloc>,<mshr>:<N>:<merge>,<mq>:<rf>}
-gpgpu_const_cache:l1 N:64:64:2,L:R:f:N:L,S:2:32,4 # per-shader L1 constant memory cache  (READ-ONLY) config  {<nsets>:<bsize>:<assoc>,<rep>:<wr>:<alloc>:<wr_alloc>,<mshr>:<N>:<merge>,<mq>} 
-gpgpu_cache:il1     N:4:128:4,L:R:f:N:L,S:2:32,4 # shader L1 instruction cache config  {<nsets>:<bsize>:<assoc>,<rep>:<wr>:<alloc>:<wr_alloc>,<mshr>:<N>:<merge>,<mq>} 
-gpgpu_cache:dl1     N:32:128:4,L:L:m:N:H,S:64:8,8 # per-shader L1 data cache config  {<nsets>:<bsize>:<assoc>,<rep>:<wr>:<alloc>:<wr_alloc>,<mshr>:<N>:<merge>,<mq> | none}
-gpgpu_l1_banks                         1 # The number of L1 cache banks
-gpgpu_l1_banks_byte_interleaving                   32 # l1 banks byte interleaving granularity
-gpgpu_l1_banks_hashing_function                    0 # l1 banks hashing function
-gpgpu_l1_latency                      35 # L1 Hit Latency
-gpgpu_smem_latency                    26 # smem Latency
-gpgpu_cache:dl1PrefL1                 none # per-shader L1 data cache config  {<nsets>:<bsize>:<assoc>,<rep>:<wr>:<alloc>:<wr_alloc>,<mshr>:<N>:<merge>,<mq> | none}
-gpgpu_cache:dl1PrefShared                 none # per-shader L1 data cache config  {<nsets>:<bsize>:<assoc>,<rep>:<wr>:<alloc>:<wr_alloc>,<mshr>:<N>:<merge>,<mq> | none}
-gpgpu_gmem_skip_L1D                    0 # global memory access skip L1D cache (implements -Xptxas -dlcm=cg, default=no skip)
-gpgpu_perfect_mem                      0 # enable perfect memory mode (no cache miss)
-n_regfile_gating_group                    4 # group of lanes that should be read/written together)
-gpgpu_clock_gated_reg_file                    0 # enable clock gated reg file for power calculations
-gpgpu_clock_gated_lanes                    0 # enable clock gated lanes for power calculations
-gpgpu_shader_registers                32768 # Number of registers per shader core. Limits number of concurrent CTAs. (default 8192)
-gpgpu_registers_per_block                 8192 # Maximum number of registers per CTA. (default 8192)
-gpgpu_ignore_resources_limitation                    0 # gpgpu_ignore_resources_limitation (default 0)
-gpgpu_shader_cta                       8 # Maximum number of concurrent CTAs in shader (default 8)
-gpgpu_num_cta_barriers                   16 # Maximum number of named barriers per CTA (default 16)
-gpgpu_n_clusters                      15 # number of processing clusters
-gpgpu_n_cores_per_cluster                    1 # number of simd cores per cluster
-gpgpu_n_cluster_ejection_buffer_size                   32 # number of packets in ejection buffer
-gpgpu_n_ldst_response_buffer_size                    2 # number of response packets in ld/st unit ejection buffer
-gpgpu_shmem_per_block                49152 # Size of shared memory per thread block or CTA (default 48kB)
-gpgpu_shmem_size                   49152 # Size of shared memory per shader core (default 16kB)
-gpgpu_adaptive_cache_config                    0 # adaptive_cache_config
-gpgpu_shmem_sizeDefault                49152 # Size of shared memory per shader core (default 16kB)
-gpgpu_shmem_size_PrefL1                16384 # Size of shared memory per shader core (default 16kB)
-gpgpu_shmem_size_PrefShared                16384 # Size of shared memory per shader core (default 16kB)
-gpgpu_shmem_num_banks                   32 # Number of banks in the shared memory in each shader core (default 16)
-gpgpu_shmem_limited_broadcast                    0 # Limit shared memory to do one broadcast per cycle (default on)
-gpgpu_shmem_warp_parts                    1 # Number of portions a warp is divided into for shared memory bank conflict check 
-gpgpu_mem_unit_ports                    1 # The number of memory transactions allowed per core cycle
-gpgpu_shmem_warp_parts                    1 # Number of portions a warp is divided into for shared memory bank conflict check 
-gpgpu_warpdistro_shader                   -1 # Specify which shader core to collect the warp size distribution from
-gpgpu_warp_issue_shader                    0 # Specify which shader core to collect the warp issue distribution from
-gpgpu_local_mem_map                    1 # Mapping from local memory space address to simulated GPU physical address space (default = enabled)
-gpgpu_num_reg_banks                   16 # Number of register banks (default = 8)
-gpgpu_reg_bank_use_warp_id                    0 # Use warp ID in mapping registers to banks (default = off)
-gpgpu_sub_core_model                    0 # Sub Core Volta/Pascal model (default = off)
-gpgpu_enable_specialized_operand_collector                    1 # enable_specialized_operand_collector
-gpgpu_operand_collector_num_units_sp                    6 # number of collector units (default = 4)
-gpgpu_operand_collector_num_units_dp                    0 # number of collector units (default = 0)
-gpgpu_operand_collector_num_units_sfu                    8 # number of collector units (default = 4)
-gpgpu_operand_collector_num_units_int                    0 # number of collector units (default = 0)
-gpgpu_operand_collector_num_units_tensor_core                    4 # number of collector units (default = 4)
-gpgpu_operand_collector_num_units_mem                    2 # number of collector units (default = 2)
-gpgpu_operand_collector_num_units_gen                    0 # number of collector units (default = 0)
-gpgpu_operand_collector_num_in_ports_sp                    2 # number of collector unit in ports (default = 1)
-gpgpu_operand_collector_num_in_ports_dp                    0 # number of collector unit in ports (default = 0)
-gpgpu_operand_collector_num_in_ports_sfu                    1 # number of collector unit in ports (default = 1)
-gpgpu_operand_collector_num_in_ports_int                    0 # number of collector unit in ports (default = 0)
-gpgpu_operand_collector_num_in_ports_tensor_core                    1 # number of collector unit in ports (default = 1)
-gpgpu_operand_collector_num_in_ports_mem                    1 # number of collector unit in ports (default = 1)
-gpgpu_operand_collector_num_in_ports_gen                    0 # number of collector unit in ports (default = 0)
-gpgpu_operand_collector_num_out_ports_sp                    2 # number of collector unit in ports (default = 1)
-gpgpu_operand_collector_num_out_ports_dp                    0 # number of collector unit in ports (default = 0)
-gpgpu_operand_collector_num_out_ports_sfu                    1 # number of collector unit in ports (default = 1)
-gpgpu_operand_collector_num_out_ports_int                    0 # number of collector unit in ports (default = 0)
-gpgpu_operand_collector_num_out_ports_tensor_core                    1 # number of collector unit in ports (default = 1)
-gpgpu_operand_collector_num_out_ports_mem                    1 # number of collector unit in ports (default = 1)
-gpgpu_operand_collector_num_out_ports_gen                    0 # number of collector unit in ports (default = 0)
-gpgpu_coalesce_arch                   20 # Coalescing arch (GT200 = 13, Fermi = 20)
-gpgpu_num_sched_per_core                    2 # Number of warp schedulers per core
-gpgpu_max_insn_issue_per_warp                    1 # Max number of instructions that can be issued per warp in one cycle by scheduler (either 1 or 2)
-gpgpu_dual_issue_diff_exec_units                    1 # should dual issue use two different execution unit resources (Default = 1)
-gpgpu_simt_core_sim_order                    1 # Select the simulation order of cores in a cluster (0=Fix, 1=Round-Robin)
-gpgpu_pipeline_widths 2,0,0,1,1,2,0,0,1,1,2 # Pipeline widths ID_OC_SP,ID_OC_DP,ID_OC_INT,ID_OC_SFU,ID_OC_MEM,OC_EX_SP,OC_EX_DP,OC_EX_INT,OC_EX_SFU,OC_EX_MEM,EX_WB,ID_OC_TENSOR_CORE,OC_EX_TENSOR_CORE
-gpgpu_tensor_core_avail                    0 # Tensor Core Available (default=0)
-gpgpu_num_sp_units                     2 # Number of SP units (default=1)
-gpgpu_num_dp_units                     0 # Number of DP units (default=0)
-gpgpu_num_int_units                    0 # Number of INT units (default=0)
-gpgpu_num_sfu_units                    1 # Number of SF units (default=1)
-gpgpu_num_tensor_core_units                    0 # Number of tensor_core units (default=1)
-gpgpu_num_mem_units                    1 # Number if ldst units (default=1) WARNING: not hooked up to anything
-gpgpu_scheduler                      gto # Scheduler configuration: < lrr | gto | two_level_active > If two_level_active:<num_active_warps>:<inner_prioritization>:<outer_prioritization>For complete list of prioritization values see shader.h enum scheduler_prioritization_typeDefault: gto
-gpgpu_concurrent_kernel_sm                    0 # Support concurrent kernels on a SM (default = disabled)
-gpgpu_perfect_inst_const_cache                    0 # perfect inst and const cache mode, so all inst and const hits in the cache(default = disabled)
-gpgpu_inst_fetch_throughput                    1 # the number of fetched intruction per warp each cycle
-gpgpu_reg_file_port_throughput                    1 # the number ports of the register file
-specialized_unit_1         0,4,4,4,4,BRA # specialized unit config {<enabled>,<num_units>:<latency>:<initiation>,<ID_OC_SPEC>:<OC_EX_SPEC>,<NAME>}
-specialized_unit_2         0,4,4,4,4,BRA # specialized unit config {<enabled>,<num_units>:<latency>:<initiation>,<ID_OC_SPEC>:<OC_EX_SPEC>,<NAME>}
-specialized_unit_3         0,4,4,4,4,BRA # specialized unit config {<enabled>,<num_units>:<latency>:<initiation>,<ID_OC_SPEC>:<OC_EX_SPEC>,<NAME>}
-specialized_unit_4         0,4,4,4,4,BRA # specialized unit config {<enabled>,<num_units>:<latency>:<initiation>,<ID_OC_SPEC>:<OC_EX_SPEC>,<NAME>}
-specialized_unit_5         0,4,4,4,4,BRA # specialized unit config {<enabled>,<num_units>:<latency>:<initiation>,<ID_OC_SPEC>:<OC_EX_SPEC>,<NAME>}
-specialized_unit_6         0,4,4,4,4,BRA # specialized unit config {<enabled>,<num_units>:<latency>:<initiation>,<ID_OC_SPEC>:<OC_EX_SPEC>,<NAME>}
-specialized_unit_7         0,4,4,4,4,BRA # specialized unit config {<enabled>,<num_units>:<latency>:<initiation>,<ID_OC_SPEC>:<OC_EX_SPEC>,<NAME>}
-specialized_unit_8         0,4,4,4,4,BRA # specialized unit config {<enabled>,<num_units>:<latency>:<initiation>,<ID_OC_SPEC>:<OC_EX_SPEC>,<NAME>}
-gpgpu_perf_sim_memcpy                    1 # Fill the L2 cache on memcpy
-gpgpu_simple_dram_model                    0 # simple_dram_model with fixed latency and BW
-gpgpu_dram_scheduler                    1 # 0 = fifo, 1 = FR-FCFS (defaul)
-gpgpu_dram_partition_queues          64:64:64:64 # i2$:$2d:d2$:$2i
-l2_ideal                               0 # Use a ideal L2 cache that always hit
-gpgpu_cache:dl2     S:64:128:8,L:B:m:L:L,A:256:4,4:0,32 # unified banked L2 data cache config  {<nsets>:<bsize>:<assoc>,<rep>:<wr>:<alloc>:<wr_alloc>,<mshr>:<N>:<merge>,<mq>}
-gpgpu_cache:dl2_texture_only                    0 # L2 cache used for texture only
-gpgpu_n_mem                            6 # number of memory modules (e.g. memory controllers) in gpu
-gpgpu_n_sub_partition_per_mchannel                    2 # number of memory subpartition in each memory module
-gpgpu_n_mem_per_ctrlr                    2 # number of memory chips per memory controller
-gpgpu_memlatency_stat                   14 # track and display latency statistics 0x2 enables MC, 0x4 enables queue logs
-gpgpu_frfcfs_dram_sched_queue_size                   64 # 0 = unlimited (default); # entries per chip
-gpgpu_dram_return_queue_size                  116 # 0 = unlimited (default); # entries per chip
-gpgpu_dram_buswidth                    4 # default = 4 bytes (8 bytes per cycle at DDR)
-gpgpu_dram_burst_length                    8 # Burst length of each DRAM request (default = 4 data bus cycle)
-dram_data_command_freq_ratio                    4 # Frequency ratio between DRAM data bus and command bus (default = 2 times, i.e. DDR)
-gpgpu_dram_timing_opt nbk=16:CCD=2:RRD=6:RCD=12:RAS=28:RP=12:RC=40: CL=12:WL=4:CDLR=5:WR=12:nbkgrp=4:CCDL=3:RTPL=2 # DRAM timing parameters = {nbk:tCCD:tRRD:tRCD:tRAS:tRP:tRC:CL:WL:tCDLR:tWR:nbkgrp:tCCDL:tRTPL}
-gpgpu_l2_rop_latency                  120 # ROP queue latency (default 85)
-dram_latency                         100 # DRAM latency (default 30)
-dram_dual_bus_interface                    0 # dual_bus_interface (default = 0) 
-dram_bnk_indexing_policy                    0 # dram_bnk_indexing_policy (0 = normal indexing, 1 = Xoring with the higher bits) (Default = 0)
-dram_bnkgrp_indexing_policy                    1 # dram_bnkgrp_indexing_policy (0 = take higher bits, 1 = take lower bits) (Default = 0)
-dram_seperate_write_queue_enable                    0 # Seperate_Write_Queue_Enable
-dram_write_queue_size             32:28:16 # Write_Queue_Size
-dram_elimnate_rw_turnaround                    0 # elimnate_rw_turnaround i.e set tWTR and tRTW = 0
-icnt_flit_size                        40 # icnt_flit_size
-gpgpu_mem_addr_mapping dramid@8;00000000.00000000.00000000.00000000.0000RRRR.RRRRRRRR.BBBCCCCB.CCSSSSSS # mapping memory address to dram model {dramid@<start bit>;<memory address map>}
-gpgpu_mem_addr_test                    0 # run sweep test to check address mapping for aliased address
-gpgpu_mem_address_mask                    1 # 0 = old addressing mask, 1 = new addressing mask, 2 = new add. mask + flipped bank sel and chip sel bits
-gpgpu_memory_partition_indexing                    0 # 0 = no indexing, 1 = bitwise xoring, 2 = IPoly, 3 = custom indexing
-gpuwattch_xml_file  gpuwattch_gtx480.xml # GPUWattch XML file
-power_simulation_enabled                    1 # Turn on power simulator (1=On, 0=Off)
-power_per_cycle_dump                    0 # Dump detailed power output each cycle
-power_trace_enabled                    0 # produce a file for the power trace (1=On, 0=Off)
-power_trace_zlevel                     6 # Compression level of the power trace output log (0=no comp, 9=highest)
-steady_power_levels_enabled                    0 # produce a file for the steady power levels (1=On, 0=Off)
-steady_state_definition                  8:4 # allowed deviation:number of samples
-gpgpu_max_cycle                        0 # terminates gpu simulation early (0 = no limit)
-gpgpu_max_insn                         0 # terminates gpu simulation early (0 = no limit)
-gpgpu_max_cta                          0 # terminates gpu simulation early (0 = no limit)
-gpgpu_max_completed_cta                    0 # terminates gpu simulation early (0 = no limit)
-gpgpu_runtime_stat                   500 # display runtime statistics such as dram utilization {<freq>:<flag>}
-liveness_message_freq                    1 # Minimum number of seconds between simulation liveness messages (0 = always print)
-gpgpu_compute_capability_major                    2 # Major compute capability version number
-gpgpu_compute_capability_minor                    0 # Minor compute capability version number
-gpgpu_flush_l1_cache                    1 # Flush L1 cache at the end of each kernel call
-gpgpu_flush_l2_cache                    0 # Flush L2 cache at the end of each kernel call
-gpgpu_deadlock_detect                    1 # Stop the simulation at deadlock (1=on (default), 0=off)
-gpgpu_ptx_instruction_classification                    0 # if enabled will classify ptx instruction types per kernel (Max 255 kernels now)
-gpgpu_ptx_sim_mode                     0 # Select between Performance (default) or Functional simulation (1)
-gpgpu_clock_domains 700.0:700.0:700.0:924.0 # Clock Domain Frequencies in MhZ {<Core Clock>:<ICNT Clock>:<L2 Clock>:<DRAM Clock>}
-gpgpu_max_concurrent_kernel                    8 # maximum kernels that can run concurrently on GPU
-gpgpu_cflog_interval                    0 # Interval between each snapshot in control flow logger
-visualizer_enabled                     0 # Turn on visualizer output (1=On, 0=Off)
-visualizer_outputfile                 NULL # Specifies the output log file for visualizer
-visualizer_zlevel                      6 # Compression level of the visualizer output log (0=no comp, 9=highest)
-gpgpu_stack_size_limit                 1024 # GPU thread stack size
-gpgpu_heap_size_limit              8388608 # GPU malloc heap size 
-gpgpu_runtime_sync_depth_limit                    2 # GPU device runtime synchronize depth
-gpgpu_runtime_pending_launch_count_limit                 2048 # GPU device runtime pending launch count
-trace_enabled                          0 # Turn on traces
-trace_components                    none # comma seperated list of traces to enable. Complete list found in trace_streams.tup. Default none
-trace_sampling_core                    0 # The core which is printed using CORE_DPRINTF. Default 0
-trace_sampling_memory_partition                   -1 # The memory partition which is printed using MEMPART_DPRINTF. Default -1 (i.e. all)
-enable_ptx_file_line_stats                    1 # Turn on PTX source line statistic profiling. (1 = On)
-ptx_line_stats_filename gpgpu_inst_stats.txt # Output file for PTX source line statistics.
-gpgpu_kernel_launch_latency                    0 # Kernel launch latency in cycles. Default: 0
-gpgpu_cdp_enabled                      0 # Turn on CDP
-gpgpu_TB_launch_latency                    0 # thread block launch latency in cycles. Default: 0
DRAM Timing Options:
nbk                                    16 # number of banks
CCD                                     2 # column to column delay
RRD                                     6 # minimal delay between activation of rows in different banks
RCD                                    12 # row to column delay
RAS                                    28 # time needed to activate row
RP                                     12 # time needed to precharge (deactivate) row
RC                                     40 # row cycle time
CDLR                                    5 # switching from write to read (changes tWTR)
WR                                     12 # last data-in to row precharge
CL                                     12 # CAS latency
WL                                      4 # Write latency
nbkgrp                                  4 # number of bank groups
CCDL                                    3 # column to column delay between accesses to different bank groups
RTPL                                    2 # read to precharge delay between accesses to different bank groups
Total number of memory sub partition = 12
addr_dec_mask[CHIP]  = 0000000000000000 	high:64 low:0
addr_dec_mask[BK]    = 000000000000e100 	high:16 low:8
addr_dec_mask[ROW]   = 000000000fff0000 	high:28 low:16
addr_dec_mask[COL]   = 0000000000001eff 	high:13 low:0
addr_dec_mask[BURST] = 000000000000003f 	high:6 low:0
sub_partition_id_mask = 0000000000000100
GPGPU-Sim uArch: clock freqs: 700000000.000000:700000000.000000:700000000.000000:924000000.000000
GPGPU-Sim uArch: clock periods: 0.00000000142857142857:0.00000000142857142857:0.00000000142857142857:0.00000000108225108225
*** Initializing Memory Statistics ***
GPGPU-Sim uArch: interconnect node map (shaderID+MemID to icntID)
GPGPU-Sim uArch: Memory nodes ID start from index: 15
GPGPU-Sim uArch:    0   1   2   3   4
GPGPU-Sim uArch:    5   6   7   8   9
GPGPU-Sim uArch:   10  11  12  13  14
GPGPU-Sim uArch:   15  16  17  18  19
GPGPU-Sim uArch:   20  21  22  23  24
GPGPU-Sim uArch:   25  26
GPGPU-Sim uArch: interconnect node reverse map (icntID to shaderID+MemID)
GPGPU-Sim uArch: Memory nodes start from ID: 15
GPGPU-Sim uArch:    0   1   2   3   4
GPGPU-Sim uArch:    5   6   7   8   9
GPGPU-Sim uArch:   10  11  12  13  14
GPGPU-Sim uArch:   15  16  17  18  19
GPGPU-Sim uArch:   20  21  22  23  24
GPGPU-Sim uArch:   25  26
a45b0a7d36ff8b0bd9c5a76e4d0cd51a  /home/ishan/COA/Lab4/gpu-rodinia/cuda/pathfinder/a.out
Extracting PTX file and ptxas options    1: a.1.sm_52.ptx -arch=sm_52
GPGPU-Sim uArch: performance model initialization complete.
self exe links to: /home/ishan/COA/Lab4/gpu-rodinia/cuda/pathfinder/a.out
self exe links to: /home/ishan/COA/Lab4/gpu-rodinia/cuda/pathfinder/a.out
11.0
GPGPU-Sim PTX: __cudaRegisterFatBinary, fat_cubin_handle = 1, filename=default
self exe links to: /home/ishan/COA/Lab4/gpu-rodinia/cuda/pathfinder/a.out
Running md5sum using "md5sum /home/ishan/COA/Lab4/gpu-rodinia/cuda/pathfinder/a.out "
self exe links to: /home/ishan/COA/Lab4/gpu-rodinia/cuda/pathfinder/a.out
Extracting specific PTX file named a.1.sm_52.ptx 
GPGPU-Sim PTX: __cudaRegisterFunction _Z14dynproc_kerneliPiS_S_iiii : hostFun 0x0x559fde9b5ba4, fat_cubin_handle = 1
GPGPU-Sim PTX: Parsing a.1.sm_52.ptx
GPGPU-Sim PTX: allocating shared region for "_ZZ14dynproc_kerneliPiS_S_iiiiE4prev" from 0x0 to 0x400 (shared memory space)
GPGPU-Sim PTX: allocating shared region for "_ZZ14dynproc_kerneliPiS_S_iiiiE6result" from 0x400 to 0x800 (shared memory space)
GPGPU-Sim PTX: instruction assembly for function '_Z14dynproc_kerneliPiS_S_iiii'...   done.
GPGPU-Sim PTX: finished parsing EMBEDDED .ptx file a.1.sm_52.ptx
GPGPU-Sim PTX: loading globals with explicit initializers... 
GPGPU-Sim PTX: finished loading globals (0 bytes total).
GPGPU-Sim PTX: loading constants with explicit initializers...  done.
GPGPU-Sim PTX: Loading PTXInfo from a.1.sm_52.ptx
GPGPU-Sim PTX: Kernel '_Z14dynproc_kerneliPiS_S_iiii' : regs=18, lmem=0, smem=2048, cmem=368
pyramidHeight: 20
gridSize: [10000]
border:[20]
blockSize: 256
blockGrid:[47]
targetBlock:[216]
GPGPU-Sim PTX: Setting up arguments for 4 bytes starting at 0x7fff0e18632c..
GPGPU-Sim PTX: Setting up arguments for 8 bytes starting at 0x7fff0e186320..
GPGPU-Sim PTX: Setting up arguments for 8 bytes starting at 0x7fff0e186318..
GPGPU-Sim PTX: Setting up arguments for 8 bytes starting at 0x7fff0e186310..
GPGPU-Sim PTX: Setting up arguments for 4 bytes starting at 0x7fff0e186328..
GPGPU-Sim PTX: Setting up arguments for 4 bytes starting at 0x7fff0e18630c..
GPGPU-Sim PTX: Setting up arguments for 4 bytes starting at 0x7fff0e1863c0..
GPGPU-Sim PTX: Setting up arguments for 4 bytes starting at 0x7fff0e1863c8..

GPGPU-Sim PTX: cudaLaunch for 0x0x559fde9b5ba4 (mode=performance simulation) on stream 0
GPGPU-Sim PTX: finding reconvergence points for '_Z14dynproc_kerneliPiS_S_iiii'...
GPGPU-Sim PTX: Finding dominators for '_Z14dynproc_kerneliPiS_S_iiii'...
GPGPU-Sim PTX: Finding immediate dominators for '_Z14dynproc_kerneliPiS_S_iiii'...
GPGPU-Sim PTX: Finding postdominators for '_Z14dynproc_kerneliPiS_S_iiii'...
GPGPU-Sim PTX: Finding immediate postdominators for '_Z14dynproc_kerneliPiS_S_iiii'...
GPGPU-Sim PTX: pre-decoding instructions for '_Z14dynproc_kerneliPiS_S_iiii'...
GPGPU-Sim PTX: reconvergence points for _Z14dynproc_kerneliPiS_S_iiii...
GPGPU-Sim PTX:  1 (potential) branch divergence @  PC=0x0c0 (a.1.sm_52.ptx:61) @!%p3 bra BB0_2;
GPGPU-Sim PTX:    immediate post dominator      @  PC=0x110 (a.1.sm_52.ptx:75) bar.sync 0;
GPGPU-Sim PTX:  2 (potential) branch divergence @  PC=0x0c8 (a.1.sm_52.ptx:62) bra.uni BB0_1;
GPGPU-Sim PTX:    immediate post dominator      @  PC=0x0d0 (a.1.sm_52.ptx:65) cvta.to.global.u64 %rd4, %rd2;
GPGPU-Sim PTX:  3 (potential) branch divergence @  PC=0x120 (a.1.sm_52.ptx:77) @%p4 bra BB0_10;
GPGPU-Sim PTX:    immediate post dominator      @  PC=0x338 (a.1.sm_52.ptx:157) and.b16 %rs6, %rs8, 255;
GPGPU-Sim PTX:  4 (potential) branch divergence @  PC=0x208 (a.1.sm_52.ptx:109) @!%p12 bra BB0_6;
GPGPU-Sim PTX:    immediate post dominator      @  PC=0x2b8 (a.1.sm_52.ptx:135) bar.sync 0;
GPGPU-Sim PTX:  5 (potential) branch divergence @  PC=0x210 (a.1.sm_52.ptx:110) bra.uni BB0_5;
GPGPU-Sim PTX:    immediate post dominator      @  PC=0x218 (a.1.sm_52.ptx:113) ld.shared.u32 %r70, [%r2];
GPGPU-Sim PTX:  6 (potential) branch divergence @  PC=0x2c8 (a.1.sm_52.ptx:137) @%p15 bra BB0_10;
GPGPU-Sim PTX:    immediate post dominator      @  PC=0x338 (a.1.sm_52.ptx:157) and.b16 %rs6, %rs8, 255;
GPGPU-Sim PTX:  7 (potential) branch divergence @  PC=0x2d8 (a.1.sm_52.ptx:140) @%p16 bra BB0_9;
GPGPU-Sim PTX:    immediate post dominator      @  PC=0x310 (a.1.sm_52.ptx:150) bar.sync 0;
GPGPU-Sim PTX:  8 (potential) branch divergence @  PC=0x330 (a.1.sm_52.ptx:154) @%p17 bra BB0_4;
GPGPU-Sim PTX:    immediate post dominator      @  PC=0x338 (a.1.sm_52.ptx:157) and.b16 %rs6, %rs8, 255;
GPGPU-Sim PTX:  9 (potential) branch divergence @  PC=0x348 (a.1.sm_52.ptx:159) @%p18 bra BB0_12;
GPGPU-Sim PTX:    immediate post dominator      @  PC=0x390 (a.1.sm_52.ptx:171) ret;
GPGPU-Sim PTX: ... end of reconvergence points for _Z14dynproc_kerneliPiS_S_iiii
GPGPU-Sim PTX: ... done pre-decoding instructions for '_Z14dynproc_kerneliPiS_S_iiii'.
GPGPU-Sim PTX: pushing kernel '_Z14dynproc_kerneliPiS_S_iiii' to stream 0, gridDim= (47,1,1) blockDim = (256,1,1) 
GPGPU-Sim uArch: Shader 0 bind to kernel 1 '_Z14dynproc_kerneliPiS_S_iiii'
GPGPU-Sim uArch: CTA/core = 6, limited by: threads regs
GPGPU-Sim uArch: Shader 1 bind to kernel 1 '_Z14dynproc_kerneliPiS_S_iiii'
GPGPU-Sim uArch: Shader 2 bind to kernel 1 '_Z14dynproc_kerneliPiS_S_iiii'
GPGPU-Sim uArch: Shader 3 bind to kernel 1 '_Z14dynproc_kerneliPiS_S_iiii'
GPGPU-Sim uArch: Shader 4 bind to kernel 1 '_Z14dynproc_kerneliPiS_S_iiii'
GPGPU-Sim uArch: Shader 5 bind to kernel 1 '_Z14dynproc_kerneliPiS_S_iiii'
GPGPU-Sim uArch: Shader 6 bind to kernel 1 '_Z14dynproc_kerneliPiS_S_iiii'
GPGPU-Sim uArch: Shader 7 bind to kernel 1 '_Z14dynproc_kerneliPiS_S_iiii'
GPGPU-Sim uArch: Shader 8 bind to kernel 1 '_Z14dynproc_kerneliPiS_S_iiii'
GPGPU-Sim uArch: Shader 9 bind to kernel 1 '_Z14dynproc_kerneliPiS_S_iiii'
GPGPU-Sim uArch: Shader 10 bind to kernel 1 '_Z14dynproc_kerneliPiS_S_iiii'
GPGPU-Sim uArch: Shader 11 bind to kernel 1 '_Z14dynproc_kerneliPiS_S_iiii'
GPGPU-Sim uArch: Shader 12 bind to kernel 1 '_Z14dynproc_kerneliPiS_S_iiii'
GPGPU-Sim uArch: Shader 13 bind to kernel 1 '_Z14dynproc_kerneliPiS_S_iiii'
GPGPU-Sim uArch: Shader 14 bind to kernel 1 '_Z14dynproc_kerneliPiS_S_iiii'
Destroy streams for kernel 1: size 0
kernel_name = _Z14dynproc_kerneliPiS_S_iiii 
kernel_launch_uid = 1 
gpu_sim_cycle = 27977
gpu_sim_insn = 12710760
gpu_ipc =     454.3289
gpu_tot_sim_cycle = 27977
gpu_tot_sim_insn = 12710760
gpu_tot_ipc =     454.3289
gpu_tot_issued_cta = 47
gpu_occupancy = 46.8686% 
gpu_tot_occupancy = 46.8686% 
max_total_param_size = 0
gpu_stall_dramfull = 158
gpu_stall_icnt2sh    = 0
partiton_level_parallism =       0.3193
partiton_level_parallism_total  =       0.3193
partiton_level_parallism_util =       1.3837
partiton_level_parallism_util_total  =       1.3837
L2_BW  =      27.8405 GB/Sec
L2_BW_total  =      27.8405 GB/Sec
gpu_total_sim_rate=668987

========= Core cache stats =========
L1I_cache:
	L1I_total_cache_accesses = 225037
	L1I_total_cache_misses = 2682
	L1I_total_cache_miss_rate = 0.0119
	L1I_total_cache_pending_hits = 0
	L1I_total_cache_reservation_fails = 0
L1D_cache:
	L1D_cache_core[0]: Access = 1336, Miss = 748, Miss_rate = 0.560, Pending_hits = 579, Reservation_fails = 0
	L1D_cache_core[1]: Access = 1123, Miss = 640, Miss_rate = 0.570, Pending_hits = 480, Reservation_fails = 0
	L1D_cache_core[2]: Access = 1011, Miss = 570, Miss_rate = 0.564, Pending_hits = 441, Reservation_fails = 0
	L1D_cache_core[3]: Access = 1011, Miss = 570, Miss_rate = 0.564, Pending_hits = 441, Reservation_fails = 0
	L1D_cache_core[4]: Access = 1011, Miss = 570, Miss_rate = 0.564, Pending_hits = 441, Reservation_fails = 9
	L1D_cache_core[5]: Access = 1011, Miss = 570, Miss_rate = 0.564, Pending_hits = 441, Reservation_fails = 0
	L1D_cache_core[6]: Access = 1011, Miss = 570, Miss_rate = 0.564, Pending_hits = 441, Reservation_fails = 0
	L1D_cache_core[7]: Access = 1011, Miss = 570, Miss_rate = 0.564, Pending_hits = 441, Reservation_fails = 0
	L1D_cache_core[8]: Access = 1011, Miss = 570, Miss_rate = 0.564, Pending_hits = 441, Reservation_fails = 3
	L1D_cache_core[9]: Access = 1011, Miss = 570, Miss_rate = 0.564, Pending_hits = 441, Reservation_fails = 0
	L1D_cache_core[10]: Access = 1011, Miss = 570, Miss_rate = 0.564, Pending_hits = 441, Reservation_fails = 0
	L1D_cache_core[11]: Access = 1011, Miss = 570, Miss_rate = 0.564, Pending_hits = 441, Reservation_fails = 0
	L1D_cache_core[12]: Access = 1011, Miss = 570, Miss_rate = 0.564, Pending_hits = 441, Reservation_fails = 0
	L1D_cache_core[13]: Access = 1011, Miss = 570, Miss_rate = 0.564, Pending_hits = 441, Reservation_fails = 0
	L1D_cache_core[14]: Access = 1011, Miss = 570, Miss_rate = 0.564, Pending_hits = 441, Reservation_fails = 0
	L1D_total_cache_accesses = 15602
	L1D_total_cache_misses = 8798
	L1D_total_cache_miss_rate = 0.5639
	L1D_total_cache_pending_hits = 6792
	L1D_total_cache_reservation_fails = 12
	L1D_cache_data_port_util = 0.000
	L1D_cache_fill_port_util = 0.024
L1C_cache:
	L1C_total_cache_accesses = 2632
	L1C_total_cache_misses = 480
	L1C_total_cache_miss_rate = 0.1824
	L1C_total_cache_pending_hits = 0
	L1C_total_cache_reservation_fails = 3389
L1T_cache:
	L1T_total_cache_accesses = 0
	L1T_total_cache_misses = 0
	L1T_total_cache_pending_hits = 0
	L1T_total_cache_reservation_fails = 0

Total_core_cache_stats:
	Total_core_cache_stats_breakdown[GLOBAL_ACC_R][HIT] = 12
	Total_core_cache_stats_breakdown[GLOBAL_ACC_R][HIT_RESERVED] = 6792
	Total_core_cache_stats_breakdown[GLOBAL_ACC_R][MISS] = 8126
	Total_core_cache_stats_breakdown[GLOBAL_ACC_R][RESERVATION_FAIL] = 12
	Total_core_cache_stats_breakdown[GLOBAL_ACC_R][SECTOR_MISS] = 0
	Total_core_cache_stats_breakdown[LOCAL_ACC_R][HIT] = 0
	Total_core_cache_stats_breakdown[LOCAL_ACC_R][HIT_RESERVED] = 0
	Total_core_cache_stats_breakdown[LOCAL_ACC_R][MISS] = 0
	Total_core_cache_stats_breakdown[LOCAL_ACC_R][RESERVATION_FAIL] = 0
	Total_core_cache_stats_breakdown[LOCAL_ACC_R][SECTOR_MISS] = 0
	Total_core_cache_stats_breakdown[CONST_ACC_R][HIT] = 2152
	Total_core_cache_stats_breakdown[CONST_ACC_R][HIT_RESERVED] = 0
	Total_core_cache_stats_breakdown[CONST_ACC_R][MISS] = 480
	Total_core_cache_stats_breakdown[CONST_ACC_R][RESERVATION_FAIL] = 3389
	Total_core_cache_stats_breakdown[CONST_ACC_R][SECTOR_MISS] = 0
	Total_core_cache_stats_breakdown[TEXTURE_ACC_R][HIT] = 0
	Total_core_cache_stats_breakdown[TEXTURE_ACC_R][HIT_RESERVED] = 0
	Total_core_cache_stats_breakdown[TEXTURE_ACC_R][MISS] = 0
	Total_core_cache_stats_breakdown[TEXTURE_ACC_R][RESERVATION_FAIL] = 0
	Total_core_cache_stats_breakdown[TEXTURE_ACC_R][SECTOR_MISS] = 0
	Total_core_cache_stats_breakdown[GLOBAL_ACC_W][HIT] = 0
	Total_core_cache_stats_breakdown[GLOBAL_ACC_W][HIT_RESERVED] = 0
	Total_core_cache_stats_breakdown[GLOBAL_ACC_W][MISS] = 672
	Total_core_cache_stats_breakdown[GLOBAL_ACC_W][RESERVATION_FAIL] = 0
	Total_core_cache_stats_breakdown[GLOBAL_ACC_W][SECTOR_MISS] = 0
	Total_core_cache_stats_breakdown[LOCAL_ACC_W][HIT] = 0
	Total_core_cache_stats_breakdown[LOCAL_ACC_W][HIT_RESERVED] = 0
	Total_core_cache_stats_breakdown[LOCAL_ACC_W][MISS] = 0
	Total_core_cache_stats_breakdown[LOCAL_ACC_W][RESERVATION_FAIL] = 0
	Total_core_cache_stats_breakdown[LOCAL_ACC_W][SECTOR_MISS] = 0
	Total_core_cache_stats_breakdown[L1_WRBK_ACC][HIT] = 0
	Total_core_cache_stats_breakdown[L1_WRBK_ACC][HIT_RESERVED] = 0
	Total_core_cache_stats_breakdown[L1_WRBK_ACC][MISS] = 0
	Total_core_cache_stats_breakdown[L1_WRBK_ACC][RESERVATION_FAIL] = 0
	Total_core_cache_stats_breakdown[L1_WRBK_ACC][SECTOR_MISS] = 0
	Total_core_cache_stats_breakdown[L2_WRBK_ACC][HIT] = 0
	Total_core_cache_stats_breakdown[L2_WRBK_ACC][HIT_RESERVED] = 0
	Total_core_cache_stats_breakdown[L2_WRBK_ACC][MISS] = 0
	Total_core_cache_stats_breakdown[L2_WRBK_ACC][RESERVATION_FAIL] = 0
	Total_core_cache_stats_breakdown[L2_WRBK_ACC][SECTOR_MISS] = 0
	Total_core_cache_stats_breakdown[INST_ACC_R][HIT] = 222355
	Total_core_cache_stats_breakdown[INST_ACC_R][HIT_RESERVED] = 0
	Total_core_cache_stats_breakdown[INST_ACC_R][MISS] = 2682
	Total_core_cache_stats_breakdown[INST_ACC_R][RESERVATION_FAIL] = 0
	Total_core_cache_stats_breakdown[INST_ACC_R][SECTOR_MISS] = 0
	Total_core_cache_stats_breakdown[L1_WR_ALLOC_R][HIT] = 0
	Total_core_cache_stats_breakdown[L1_WR_ALLOC_R][HIT_RESERVED] = 0
	Total_core_cache_stats_breakdown[L1_WR_ALLOC_R][MISS] = 0
	Total_core_cache_stats_breakdown[L1_WR_ALLOC_R][RESERVATION_FAIL] = 0
	Total_core_cache_stats_breakdown[L1_WR_ALLOC_R][SECTOR_MISS] = 0
	Total_core_cache_stats_breakdown[L2_WR_ALLOC_R][HIT] = 0
	Total_core_cache_stats_breakdown[L2_WR_ALLOC_R][HIT_RESERVED] = 0
	Total_core_cache_stats_breakdown[L2_WR_ALLOC_R][MISS] = 0
	Total_core_cache_stats_breakdown[L2_WR_ALLOC_R][RESERVATION_FAIL] = 0
	Total_core_cache_stats_breakdown[L2_WR_ALLOC_R][SECTOR_MISS] = 0
	Total_core_cache_stats_breakdown[GLOBAL_ACC_R][TOTAL_ACCESS] = 14930
	Total_core_cache_stats_breakdown[CONST_ACC_R][TOTAL_ACCESS] = 2632
	Total_core_cache_stats_breakdown[GLOBAL_ACC_W][TOTAL_ACCESS] = 672
	Total_core_cache_stats_breakdown[INST_ACC_R][TOTAL_ACCESS] = 225037

Total_core_cache_fail_stats:
	Total_core_cache_fail_stats_breakdown[GLOBAL_ACC_R][MISS_QUEUE_FULL] = 12
	Total_core_cache_fail_stats_breakdown[CONST_ACC_R][MSHR_MERGE_ENRTY_FAIL] = 3389
ctas_completed 47, Shader 0 warp_id issue ditsribution:
warp_id:
0, 1, 2, 3, 4, 5, 6, 7, 8, 9, 10, 11, 12, 13, 14, 15, 16, 17, 18, 19, 20, 21, 22, 23, 24, 25, 26, 27, 28, 29, 30, 31, 
distro:
1166, 1166, 1166, 1166, 1166, 1166, 1166, 1166, 1166, 1166, 1166, 1166, 1166, 1166, 1166, 1166, 1166, 1166, 1166, 1166, 1166, 1166, 1166, 1166, 1166, 1166, 1166, 1166, 1166, 1166, 1166, 1166, 
gpgpu_n_tot_thrd_icount = 13941152
gpgpu_n_tot_w_icount = 435661
gpgpu_n_stall_shd_mem = 10829
gpgpu_n_mem_read_local = 0
gpgpu_n_mem_write_local = 0
gpgpu_n_mem_read_global = 8126
gpgpu_n_mem_write_global = 672
gpgpu_n_mem_texture = 0
gpgpu_n_mem_const = 15
gpgpu_n_load_insn  = 229320
gpgpu_n_store_insn = 10000
gpgpu_n_shmem_insn = 1306720
gpgpu_n_sstarr_insn = 0
gpgpu_n_tex_insn = 0
gpgpu_n_const_mem_insn = 0
gpgpu_n_param_mem_insn = 84224
gpgpu_n_shmem_bkconflict = 0
gpgpu_n_cache_bkconflict = 0
gpgpu_n_intrawarp_mshr_merge = 0
gpgpu_n_cmem_portconflict = 3389
gpgpu_stall_shd_mem[c_mem][resource_stall] = 3389
gpgpu_stall_shd_mem[s_mem][bk_conf] = 0
gpgpu_stall_shd_mem[gl_mem][resource_stall] = 0
gpgpu_stall_shd_mem[gl_mem][coal_stall] = 7440
gpgpu_stall_shd_mem[gl_mem][data_port_stall] = 0
gpu_reg_bank_conflict_stalls = 0
Warp Occupancy Distribution:
Stall:42763	W0_Idle:30900	W0_Scoreboard:176730	W1:0	W2:0	W3:0	W4:0	W5:0	W6:0	W7:0	W8:0	W9:0	W10:0	W11:0	W12:3219	W13:2484	W14:2484	W15:2484	W16:2484	W17:2484	W18:2484	W19:2484	W20:3035	W21:2484	W22:2484	W23:2484	W24:2484	W25:2484	W26:2484	W27:2484	W28:2484	W29:2484	W30:2484	W31:2484	W32:384695
single_issue_nums: WS0:218106	WS1:217555	
dual_issue_nums: WS0:0	WS1:0	
traffic_breakdown_coretomem[CONST_ACC_R] = 120 {8:15,}
traffic_breakdown_coretomem[GLOBAL_ACC_R] = 65008 {8:8126,}
traffic_breakdown_coretomem[GLOBAL_ACC_W] = 61632 {40:186,72:186,136:300,}
traffic_breakdown_coretomem[INST_ACC_R] = 960 {8:120,}
traffic_breakdown_memtocore[CONST_ACC_R] = 1200 {40:30,}
traffic_breakdown_memtocore[GLOBAL_ACC_R] = 1300160 {40:32504,}
traffic_breakdown_memtocore[GLOBAL_ACC_W] = 14064 {8:1758,}
traffic_breakdown_memtocore[INST_ACC_R] = 19200 {40:480,}
maxmflatency = 519 
max_icnt2mem_latency = 195 
maxmrqlatency = 151 
max_icnt2sh_latency = 55 
averagemflatency = 248 
avg_icnt2mem_latency = 11 
avg_mrq_latency = 14 
avg_icnt2sh_latency = 8 
mrq_lat_table:6736 	4724 	4455 	4226 	3246 	1308 	1434 	157 	0 	0 	0 	0 	0 	0 	0 	0 	0 	0 	0 	0 	0 	0 	0 	0 	0 	0 	0 	0 	0 	0 	0 	0 	
dq_lat_table:0 	0 	0 	0 	0 	0 	0 	0 	0 	0 	0 	0 	0 	0 	0 	0 	0 	0 	0 	0 	0 	0 	0 	0 	0 	0 	0 	0 	0 	0 	0 	0 	
mf_lat_table:0 	0 	0 	0 	0 	0 	0 	21938 	12351 	3 	0 	0 	0 	0 	0 	0 	0 	0 	0 	0 	0 	0 	0 	0 	0 	0 	0 	0 	0 	0 	0 	0 	
icnt2mem_lat_table:0 	0 	96 	33 	6 	8664 	133 	1 	0 	0 	0 	0 	0 	0 	0 	0 	0 	0 	0 	0 	0 	0 	0 	0 	
icnt2sh_lat_table:0 	0 	21110 	11753 	1241 	188 	0 	0 	0 	0 	0 	0 	0 	0 	0 	0 	0 	0 	0 	0 	0 	0 	0 	0 	
mf_lat_pw_table:0 	0 	0 	0 	0 	0 	0 	47 	5 	0 	0 	0 	0 	0 	0 	0 	0 	0 	0 	0 	0 	0 	0 	0 	0 	0 	0 	0 	0 	0 	0 	0 	
maximum concurrent accesses to same row:
dram[0]:       116       128       124       128       128       128       128       128       128       128       128       128       128       128       128       128 
dram[1]:       112       128       120       128       128       128       128       128       128       128       128       128       128       128       128       128 
dram[2]:       116       128       120       128       128       128       128       128       128       128       128       128       128       128       128       128 
dram[3]:       128       128       128       128       128       128       128       128       128       128       128       128       128       128       128       128 
dram[4]:       128       128       128       128       128       128       128       128       128       128       128       128       128       128       128       128 
dram[5]:       128       128       128       128       128       128       128       128       128       128       128       128       128       128       128       128 
maximum service time to same row:
dram[0]:      8072      9338     10118     10147     10959     11010     12300     12456     13234     13302     14028     14069     14963     14979     16363     16405 
dram[1]:      7836      9342     10122     10157     10963     11028     12313     12454     13260     13300     14044     14069     14969     14979     16359     16418 
dram[2]:      7844      9337     10122     10102     10960     11519     12347     12385     13271     13313     14050     14075     14979     14979     16357     16425 
dram[3]:      7842      9335     10125     10093     10975     11500     12375     12384     13269     13341     14060     14104     14982     15002     16372     16425 
dram[4]:      9357      9335     10137     10107     11003     11499     12472     12424     13316     13281     14062     14079     15010     14988     16397     16438 
dram[5]:      9335      9334     10143     10124     11006     11407     12460     12318     13316     13235     14072     14079     15013     14990     16406     16388 
average row accesses per activate:
dram[0]: 31.166666 180.000000 72.000000 148.000000 256.000000 256.000000 256.000000 256.000000 256.000000 256.000000 256.000000 256.000000 256.000000 256.000000 256.000000 256.000000 
dram[1]: 40.888889 180.000000 72.000000 144.000000 256.000000 256.000000 256.000000 256.000000 256.000000 256.000000 256.000000 256.000000 256.000000 256.000000 256.000000 256.000000 
dram[2]: 52.571430 180.000000 74.000000 144.000000 256.000000 256.000000 256.000000 256.000000 256.000000 256.000000 256.000000 256.000000 256.000000 256.000000 256.000000 256.000000 
dram[3]: 73.599998 180.000000 148.000000 144.000000 256.000000 256.000000 256.000000 256.000000 256.000000 256.000000 256.000000 256.000000 256.000000 256.000000 256.000000 256.000000 
dram[4]: 180.000000 180.000000 148.000000 144.000000 256.000000 256.000000 256.000000 256.000000 256.000000 256.000000 256.000000 256.000000 256.000000 256.000000 256.000000 256.000000 
dram[5]: 180.000000 180.000000 148.000000 144.000000 256.000000 256.000000 256.000000 256.000000 256.000000 256.000000 256.000000 256.000000 256.000000 256.000000 256.000000 256.000000 
average row locality = 26286/151 = 174.079468
number of total memory accesses made:
dram[0]:         0         0         0         0         0         0         0         0         0         0         0         0         0         0         0         0 
dram[1]:         0         0         0         0         0         0         0         0         0         0         0         0         0         0         0         0 
dram[2]:         0         0         0         0         0         0         0         0         0         0         0         0         0         0         0         0 
dram[3]:         0         0         0         0         0         0         0         0         0         0         0         0         0         0         0         0 
dram[4]:         0         0         0         0         0         0         0         0         0         0         0         0         0         0         0         0 
dram[5]:         0         0         0         0         0         0         0         0         0         0         0         0         0         0         0         0 
total accesses: 0
min_bank_accesses = 0!
min_chip_accesses = 0!
number of total read accesses:
dram[0]:         0         0         0         0         0         0         0         0         0         0         0         0         0         0         0         0 
dram[1]:         0         0         0         0         0         0         0         0         0         0         0         0         0         0         0         0 
dram[2]:         0         0         0         0         0         0         0         0         0         0         0         0         0         0         0         0 
dram[3]:         0         0         0         0         0         0         0         0         0         0         0         0         0         0         0         0 
dram[4]:         0         0         0         0         0         0         0         0         0         0         0         0         0         0         0         0 
dram[5]:         0         0         0         0         0         0         0         0         0         0         0         0         0         0         0         0 
total dram reads = 0
min_bank_accesses = 0!
min_chip_accesses = 0!
number of total write accesses:
dram[0]:         0         0         0         0         0         0         0         0         0         0         0         0         0         0         0         0 
dram[1]:         0         0         0         0         0         0         0         0         0         0         0         0         0         0         0         0 
dram[2]:         0         0         0         0         0         0         0         0         0         0         0         0         0         0         0         0 
dram[3]:         0         0         0         0         0         0         0         0         0         0         0         0         0         0         0         0 
dram[4]:         0         0         0         0         0         0         0         0         0         0         0         0         0         0         0         0 
dram[5]:         0         0         0         0         0         0         0         0         0         0         0         0         0         0         0         0 
total dram writes = 0
min_bank_accesses = 0!
min_chip_accesses = 0!
average mf latency per bank:
dram[0]:     none      none      none      none      none      none      none      none      none      none      none      none      none      none      none      none  
dram[1]:     none      none      none      none      none      none      none      none      none      none      none      none      none      none      none      none  
dram[2]:     none      none      none      none      none      none      none      none      none      none      none      none      none      none      none      none  
dram[3]:     none      none      none      none      none      none      none      none      none      none      none      none      none      none      none      none  
dram[4]:     none      none      none      none      none      none      none      none      none      none      none      none      none      none      none      none  
dram[5]:     none      none      none      none      none      none      none      none      none      none      none      none      none      none      none      none  
maximum mf latency per bank:
dram[0]:        406       419       378       351       485       507       324       294       292       294       292       306       279       312       278       275
dram[1]:        511       363       413       340       510       507       292       272       278       298       280       299       280       294       281       292
dram[2]:        420       390       419       352       512       507       295       308       291       298       285       330       286       300       285       294
dram[3]:        416       407       398       360       519       508       294       301       290       289       324       371       283       328       306       306
dram[4]:        429       394       380       369       508       503       285       282       294       277       293       304       300       296       313       282
dram[5]:        412       362       368       378       506       498       302       296       287       282       283       337       284       311       291       284
Memory Partition 0: 
Cache L2_bank_000:
MSHR contents

Cache L2_bank_001:
MSHR contents

In Dram Latency Queue (total = 0): 
DRAM[0]: 16 bks, busW=4 BL=8 CL=12, tRRD=6 tCCD=2, tRCD=12 tRAS=28 tRP=12 tRC=40
n_cmd=36929 n_nop=32461 n_act=47 n_pre=31 n_ref_event=94145149058640 n_req=4390 n_rd=4390 n_rd_L2_A=0 n_write=0 n_wr_bk=0 bw_util=0.2378
n_activity=13649 dram_eff=0.6433
bk0: 374a 35765i bk1: 360a 35954i bk2: 288a 36038i bk3: 296a 36129i bk4: 256a 36010i bk5: 256a 36052i bk6: 256a 36303i bk7: 256a 36288i bk8: 256a 36260i bk9: 256a 36271i bk10: 256a 36280i bk11: 256a 36199i bk12: 256a 36316i bk13: 256a 36263i bk14: 256a 36298i bk15: 256a 36328i 

------------------------------------------------------------------------

Row_Buffer_Locality = 0.992711
Row_Buffer_Locality_read = 0.992711
Row_Buffer_Locality_write = -nan
Bank_Level_Parallism = 1.536302
Bank_Level_Parallism_Col = 0.671766
Bank_Level_Parallism_Ready = 1.133197
write_to_read_ratio_blp_rw_average = 0.000000
GrpLevelPara = 0.000000 

BW Util details:
bwutil = 0.237754 
total_CMD = 36929 
util_bw = 8780 
Wasted_Col = 2076 
Wasted_Row = 240 
Idle = 25833 

BW Util Bottlenecks: 
RCDc_limit = 352 
RCDWRc_limit = 0 
WTRc_limit = 0 
RTWc_limit = 0 
CCDLc_limit = 1871 
rwq = 0 
CCDLc_limit_alone = 1871 
WTRc_limit_alone = 0 
RTWc_limit_alone = 0 

Commands details: 
total_CMD = 36929 
n_nop = 32461 
Read = 4390 
Write = 0 
L2_Alloc = 0 
L2_WB = 0 
n_act = 47 
n_pre = 31 
n_ref = 94145149058640 
n_req = 4390 
total_req = 4390 

Dual Bus Interface Util: 
issued_total_row = 78 
issued_total_col = 4390 
Row_Bus_Util =  0.002112 
CoL_Bus_Util = 0.118877 
Either_Row_CoL_Bus_Util = 0.120989 
Issued_on_Two_Bus_Simul_Util = 0.000000 
issued_two_Eff = 0.000000 
queue_avg = 2.132335 


dram_util_bins: 0 0 0 0 0 0 0 0 0 0
dram_eff_bins: 0 0 0 0 0 0 0 0 0 0
mrqq: max=64 avg=2.13233
Memory Partition 1: 
Cache L2_bank_002:
MSHR contents

Cache L2_bank_003:
MSHR contents

In Dram Latency Queue (total = 0): 
DRAM[1]: 16 bks, busW=4 BL=8 CL=12, tRRD=6 tCCD=2, tRCD=12 tRAS=28 tRP=12 tRC=40
n_cmd=36929 n_nop=32481 n_act=44 n_pre=28 n_ref_event=0 n_req=4376 n_rd=4376 n_rd_L2_A=0 n_write=0 n_wr_bk=0 bw_util=0.237
n_activity=13792 dram_eff=0.6346
bk0: 368a 35871i bk1: 360a 36040i bk2: 288a 36055i bk3: 288a 36114i bk4: 256a 35970i bk5: 256a 36123i bk6: 256a 36308i bk7: 256a 36277i bk8: 256a 36327i bk9: 256a 36254i bk10: 256a 36325i bk11: 256a 36268i bk12: 256a 36349i bk13: 256a 36304i bk14: 256a 36335i bk15: 256a 36295i 

------------------------------------------------------------------------

Row_Buffer_Locality = 0.993373
Row_Buffer_Locality_read = 0.993373
Row_Buffer_Locality_write = -nan
Bank_Level_Parallism = 1.478430
Bank_Level_Parallism_Col = 1.004557
Bank_Level_Parallism_Ready = 1.132998
write_to_read_ratio_blp_rw_average = 0.000000
GrpLevelPara = 0.000000 

BW Util details:
bwutil = 0.236995 
total_CMD = 36929 
util_bw = 8752 
Wasted_Col = 2253 
Wasted_Row = 172 
Idle = 25752 

BW Util Bottlenecks: 
RCDc_limit = 286 
RCDWRc_limit = 0 
WTRc_limit = 0 
RTWc_limit = 0 
CCDLc_limit = 2114 
rwq = 0 
CCDLc_limit_alone = 2114 
WTRc_limit_alone = 0 
RTWc_limit_alone = 0 

Commands details: 
total_CMD = 36929 
n_nop = 32481 
Read = 4376 
Write = 0 
L2_Alloc = 0 
L2_WB = 0 
n_act = 44 
n_pre = 28 
n_ref = 0 
n_req = 4376 
total_req = 4376 

Dual Bus Interface Util: 
issued_total_row = 72 
issued_total_col = 4376 
Row_Bus_Util =  0.001950 
CoL_Bus_Util = 0.118498 
Either_Row_CoL_Bus_Util = 0.120447 
Issued_on_Two_Bus_Simul_Util = 0.000000 
issued_two_Eff = 0.000000 
queue_avg = 2.015327 


dram_util_bins: 0 0 0 0 0 0 0 0 0 0
dram_eff_bins: 0 0 0 0 0 0 0 0 0 0
mrqq: max=64 avg=2.01533
Memory Partition 2: 
Cache L2_bank_004:
MSHR contents

Cache L2_bank_005:
MSHR contents

In Dram Latency Queue (total = 0): 
DRAM[2]: 16 bks, busW=4 BL=8 CL=12, tRRD=6 tCCD=2, tRCD=12 tRAS=28 tRP=12 tRC=40
n_cmd=36929 n_nop=32476 n_act=43 n_pre=27 n_ref_event=0 n_req=4384 n_rd=4384 n_rd_L2_A=0 n_write=0 n_wr_bk=0 bw_util=0.2374
n_activity=13894 dram_eff=0.6311
bk0: 368a 35867i bk1: 360a 36032i bk2: 296a 36026i bk3: 288a 36226i bk4: 256a 35992i bk5: 256a 36076i bk6: 256a 36252i bk7: 256a 36205i bk8: 256a 36306i bk9: 256a 36289i bk10: 256a 36336i bk11: 256a 36271i bk12: 256a 36336i bk13: 256a 36313i bk14: 256a 36320i bk15: 256a 36344i 

------------------------------------------------------------------------

Row_Buffer_Locality = 0.993841
Row_Buffer_Locality_read = 0.993841
Row_Buffer_Locality_write = -nan
Bank_Level_Parallism = 1.486650
Bank_Level_Parallism_Col = 1.004513
Bank_Level_Parallism_Ready = 1.124031
write_to_read_ratio_blp_rw_average = 0.000000
GrpLevelPara = 0.000000 

BW Util details:
bwutil = 0.237429 
total_CMD = 36929 
util_bw = 8768 
Wasted_Col = 2227 
Wasted_Row = 186 
Idle = 25748 

BW Util Bottlenecks: 
RCDc_limit = 341 
RCDWRc_limit = 0 
WTRc_limit = 0 
RTWc_limit = 0 
CCDLc_limit = 2006 
rwq = 0 
CCDLc_limit_alone = 2006 
WTRc_limit_alone = 0 
RTWc_limit_alone = 0 

Commands details: 
total_CMD = 36929 
n_nop = 32476 
Read = 4384 
Write = 0 
L2_Alloc = 0 
L2_WB = 0 
n_act = 43 
n_pre = 27 
n_ref = 0 
n_req = 4384 
total_req = 4384 

Dual Bus Interface Util: 
issued_total_row = 70 
issued_total_col = 4384 
Row_Bus_Util =  0.001896 
CoL_Bus_Util = 0.118714 
Either_Row_CoL_Bus_Util = 0.120583 
Issued_on_Two_Bus_Simul_Util = 0.000027 
issued_two_Eff = 0.000225 
queue_avg = 2.161364 


dram_util_bins: 0 0 0 0 0 0 0 0 0 0
dram_eff_bins: 0 0 0 0 0 0 0 0 0 0
mrqq: max=64 avg=2.16136
Memory Partition 3: 
Cache L2_bank_006:
MSHR contents

Cache L2_bank_007:
MSHR contents

In Dram Latency Queue (total = 0): 
DRAM[3]: 16 bks, busW=4 BL=8 CL=12, tRRD=6 tCCD=2, tRCD=12 tRAS=28 tRP=12 tRC=40
n_cmd=36929 n_nop=32484 n_act=39 n_pre=23 n_ref_event=0 n_req=4384 n_rd=4384 n_rd_L2_A=0 n_write=0 n_wr_bk=0 bw_util=0.2374
n_activity=13790 dram_eff=0.6358
bk0: 368a 35938i bk1: 360a 35953i bk2: 296a 36156i bk3: 288a 36221i bk4: 256a 36002i bk5: 256a 36031i bk6: 256a 36303i bk7: 256a 36264i bk8: 256a 36291i bk9: 256a 36288i bk10: 256a 36295i bk11: 256a 36240i bk12: 256a 36335i bk13: 256a 36246i bk14: 256a 36315i bk15: 256a 36302i 

------------------------------------------------------------------------

Row_Buffer_Locality = 0.994754
Row_Buffer_Locality_read = 0.994754
Row_Buffer_Locality_write = -nan
Bank_Level_Parallism = 1.490459
Bank_Level_Parallism_Col = 1.489170
Bank_Level_Parallism_Ready = 1.143900
write_to_read_ratio_blp_rw_average = 0.000000
GrpLevelPara = 1.454019 

BW Util details:
bwutil = 0.237429 
total_CMD = 36929 
util_bw = 8768 
Wasted_Col = 2215 
Wasted_Row = 192 
Idle = 25754 

BW Util Bottlenecks: 
RCDc_limit = 279 
RCDWRc_limit = 0 
WTRc_limit = 0 
RTWc_limit = 0 
CCDLc_limit = 2052 
rwq = 0 
CCDLc_limit_alone = 2052 
WTRc_limit_alone = 0 
RTWc_limit_alone = 0 

Commands details: 
total_CMD = 36929 
n_nop = 32484 
Read = 4384 
Write = 0 
L2_Alloc = 0 
L2_WB = 0 
n_act = 39 
n_pre = 23 
n_ref = 0 
n_req = 4384 
total_req = 4384 

Dual Bus Interface Util: 
issued_total_row = 62 
issued_total_col = 4384 
Row_Bus_Util =  0.001679 
CoL_Bus_Util = 0.118714 
Either_Row_CoL_Bus_Util = 0.120366 
Issued_on_Two_Bus_Simul_Util = 0.000027 
issued_two_Eff = 0.000225 
queue_avg = 2.123589 


dram_util_bins: 0 0 0 0 0 0 0 0 0 0
dram_eff_bins: 0 0 0 0 0 0 0 0 0 0
mrqq: max=64 avg=2.12359
Memory Partition 4: 
Cache L2_bank_008:
MSHR contents

Cache L2_bank_009:
MSHR contents

In Dram Latency Queue (total = 0): 
DRAM[4]: 16 bks, busW=4 BL=8 CL=12, tRRD=6 tCCD=2, tRCD=12 tRAS=28 tRP=12 tRC=40
n_cmd=36929 n_nop=32497 n_act=36 n_pre=20 n_ref_event=4565658604079112714 n_req=4376 n_rd=4376 n_rd_L2_A=0 n_write=0 n_wr_bk=0 bw_util=0.237
n_activity=13836 dram_eff=0.6326
bk0: 360a 36011i bk1: 360a 35952i bk2: 296a 36133i bk3: 288a 36106i bk4: 256a 35984i bk5: 256a 36048i bk6: 256a 36261i bk7: 256a 36306i bk8: 256a 36287i bk9: 256a 36348i bk10: 256a 36336i bk11: 256a 36257i bk12: 256a 36322i bk13: 256a 36290i bk14: 256a 36320i bk15: 256a 36273i 

------------------------------------------------------------------------

Row_Buffer_Locality = 0.995430
Row_Buffer_Locality_read = 0.995430
Row_Buffer_Locality_write = -nan
Bank_Level_Parallism = 1.480794
Bank_Level_Parallism_Col = 1.479053
Bank_Level_Parallism_Ready = 1.142042
write_to_read_ratio_blp_rw_average = 0.000000
GrpLevelPara = 1.421023 

BW Util details:
bwutil = 0.236995 
total_CMD = 36929 
util_bw = 8752 
Wasted_Col = 2286 
Wasted_Row = 154 
Idle = 25737 

BW Util Bottlenecks: 
RCDc_limit = 278 
RCDWRc_limit = 0 
WTRc_limit = 0 
RTWc_limit = 0 
CCDLc_limit = 2160 
rwq = 0 
CCDLc_limit_alone = 2160 
WTRc_limit_alone = 0 
RTWc_limit_alone = 0 

Commands details: 
total_CMD = 36929 
n_nop = 32497 
Read = 4376 
Write = 0 
L2_Alloc = 0 
L2_WB = 0 
n_act = 36 
n_pre = 20 
n_ref = 4565658604079112714 
n_req = 4376 
total_req = 4376 

Dual Bus Interface Util: 
issued_total_row = 56 
issued_total_col = 4376 
Row_Bus_Util =  0.001516 
CoL_Bus_Util = 0.118498 
Either_Row_CoL_Bus_Util = 0.120014 
Issued_on_Two_Bus_Simul_Util = 0.000000 
issued_two_Eff = 0.000000 
queue_avg = 2.094289 


dram_util_bins: 0 0 0 0 0 0 0 0 0 0
dram_eff_bins: 0 0 0 0 0 0 0 0 0 0
mrqq: max=64 avg=2.09429
Memory Partition 5: 
Cache L2_bank_010:
MSHR contents

Cache L2_bank_011:
MSHR contents

In Dram Latency Queue (total = 0): 
DRAM[5]: 16 bks, busW=4 BL=8 CL=12, tRRD=6 tCCD=2, tRCD=12 tRAS=28 tRP=12 tRC=40
n_cmd=36929 n_nop=32497 n_act=36 n_pre=20 n_ref_event=0 n_req=4376 n_rd=4376 n_rd_L2_A=0 n_write=0 n_wr_bk=0 bw_util=0.237
n_activity=13532 dram_eff=0.6468
bk0: 360a 35973i bk1: 360a 35910i bk2: 296a 36131i bk3: 288a 36099i bk4: 256a 36026i bk5: 256a 36036i bk6: 256a 36308i bk7: 256a 36279i bk8: 256a 36314i bk9: 256a 36323i bk10: 256a 36265i bk11: 256a 36193i bk12: 256a 36283i bk13: 256a 36227i bk14: 256a 36351i bk15: 256a 36311i 

------------------------------------------------------------------------

Row_Buffer_Locality = 0.995430
Row_Buffer_Locality_read = 0.995430
Row_Buffer_Locality_write = -nan
Bank_Level_Parallism = 1.542211
Bank_Level_Parallism_Col = 0.000000
Bank_Level_Parallism_Ready = 1.140247
write_to_read_ratio_blp_rw_average = 0.000000
GrpLevelPara = 0.000000 

BW Util details:
bwutil = 0.236995 
total_CMD = 36929 
util_bw = 8752 
Wasted_Col = 2018 
Wasted_Row = 115 
Idle = 26044 

BW Util Bottlenecks: 
RCDc_limit = 257 
RCDWRc_limit = 0 
WTRc_limit = 0 
RTWc_limit = 0 
CCDLc_limit = 1913 
rwq = 0 
CCDLc_limit_alone = 1913 
WTRc_limit_alone = 0 
RTWc_limit_alone = 0 

Commands details: 
total_CMD = 36929 
n_nop = 32497 
Read = 4376 
Write = 0 
L2_Alloc = 0 
L2_WB = 0 
n_act = 36 
n_pre = 20 
n_ref = 0 
n_req = 4376 
total_req = 4376 

Dual Bus Interface Util: 
issued_total_row = 56 
issued_total_col = 4376 
Row_Bus_Util =  0.001516 
CoL_Bus_Util = 0.118498 
Either_Row_CoL_Bus_Util = 0.120014 
Issued_on_Two_Bus_Simul_Util = 0.000000 
issued_two_Eff = 0.000000 
queue_avg = 2.066993 


dram_util_bins: 0 0 0 0 0 0 0 0 0 0
dram_eff_bins: 0 0 0 0 0 0 0 0 0 0
mrqq: max=64 avg=2.06699

========= L2 cache stats =========
L2_cache_bank[0]: Access = 3000, Miss = 2339, Miss_rate = 0.780, Pending_hits = 318, Reservation_fails = 343
L2_cache_bank[1]: Access = 2853, Miss = 2331, Miss_rate = 0.817, Pending_hits = 361, Reservation_fails = 0
L2_cache_bank[2]: Access = 2973, Miss = 2336, Miss_rate = 0.786, Pending_hits = 403, Reservation_fails = 225
L2_cache_bank[3]: Access = 2850, Miss = 2322, Miss_rate = 0.815, Pending_hits = 376, Reservation_fails = 0
L2_cache_bank[4]: Access = 2987, Miss = 2344, Miss_rate = 0.785, Pending_hits = 360, Reservation_fails = 158
L2_cache_bank[5]: Access = 2853, Miss = 2322, Miss_rate = 0.814, Pending_hits = 391, Reservation_fails = 0
L2_cache_bank[6]: Access = 2985, Miss = 2344, Miss_rate = 0.785, Pending_hits = 412, Reservation_fails = 142
L2_cache_bank[7]: Access = 2858, Miss = 2323, Miss_rate = 0.813, Pending_hits = 359, Reservation_fails = 0
L2_cache_bank[8]: Access = 2853, Miss = 2335, Miss_rate = 0.818, Pending_hits = 380, Reservation_fails = 0
L2_cache_bank[9]: Access = 2850, Miss = 2322, Miss_rate = 0.815, Pending_hits = 304, Reservation_fails = 0
L2_cache_bank[10]: Access = 2857, Miss = 2333, Miss_rate = 0.817, Pending_hits = 388, Reservation_fails = 0
L2_cache_bank[11]: Access = 2853, Miss = 2324, Miss_rate = 0.815, Pending_hits = 250, Reservation_fails = 0
L2_total_cache_accesses = 34772
L2_total_cache_misses = 27975
L2_total_cache_miss_rate = 0.8045
L2_total_cache_pending_hits = 4302
L2_total_cache_reservation_fails = 868
L2_total_cache_breakdown:
	L2_cache_stats_breakdown[GLOBAL_ACC_R][HIT] = 2052
	L2_cache_stats_breakdown[GLOBAL_ACC_R][HIT_RESERVED] = 4200
	L2_cache_stats_breakdown[GLOBAL_ACC_R][MISS] = 6563
	L2_cache_stats_breakdown[GLOBAL_ACC_R][RESERVATION_FAIL] = 0
	L2_cache_stats_breakdown[GLOBAL_ACC_R][SECTOR_MISS] = 19689
	L2_cache_stats_breakdown[LOCAL_ACC_R][HIT] = 0
	L2_cache_stats_breakdown[LOCAL_ACC_R][HIT_RESERVED] = 0
	L2_cache_stats_breakdown[LOCAL_ACC_R][MISS] = 0
	L2_cache_stats_breakdown[LOCAL_ACC_R][RESERVATION_FAIL] = 0
	L2_cache_stats_breakdown[LOCAL_ACC_R][SECTOR_MISS] = 0
	L2_cache_stats_breakdown[CONST_ACC_R][HIT] = 22
	L2_cache_stats_breakdown[CONST_ACC_R][HIT_RESERVED] = 6
	L2_cache_stats_breakdown[CONST_ACC_R][MISS] = 1
	L2_cache_stats_breakdown[CONST_ACC_R][RESERVATION_FAIL] = 115
	L2_cache_stats_breakdown[CONST_ACC_R][SECTOR_MISS] = 1
	L2_cache_stats_breakdown[TEXTURE_ACC_R][HIT] = 0
	L2_cache_stats_breakdown[TEXTURE_ACC_R][HIT_RESERVED] = 0
	L2_cache_stats_breakdown[TEXTURE_ACC_R][MISS] = 0
	L2_cache_stats_breakdown[TEXTURE_ACC_R][RESERVATION_FAIL] = 0
	L2_cache_stats_breakdown[TEXTURE_ACC_R][SECTOR_MISS] = 0
	L2_cache_stats_breakdown[GLOBAL_ACC_W][HIT] = 69
	L2_cache_stats_breakdown[GLOBAL_ACC_W][HIT_RESERVED] = 0
	L2_cache_stats_breakdown[GLOBAL_ACC_W][MISS] = 313
	L2_cache_stats_breakdown[GLOBAL_ACC_W][RESERVATION_FAIL] = 0
	L2_cache_stats_breakdown[GLOBAL_ACC_W][SECTOR_MISS] = 1376
	L2_cache_stats_breakdown[LOCAL_ACC_W][HIT] = 0
	L2_cache_stats_breakdown[LOCAL_ACC_W][HIT_RESERVED] = 0
	L2_cache_stats_breakdown[LOCAL_ACC_W][MISS] = 0
	L2_cache_stats_breakdown[LOCAL_ACC_W][RESERVATION_FAIL] = 0
	L2_cache_stats_breakdown[LOCAL_ACC_W][SECTOR_MISS] = 0
	L2_cache_stats_breakdown[L1_WRBK_ACC][HIT] = 0
	L2_cache_stats_breakdown[L1_WRBK_ACC][HIT_RESERVED] = 0
	L2_cache_stats_breakdown[L1_WRBK_ACC][MISS] = 0
	L2_cache_stats_breakdown[L1_WRBK_ACC][RESERVATION_FAIL] = 0
	L2_cache_stats_breakdown[L1_WRBK_ACC][SECTOR_MISS] = 0
	L2_cache_stats_breakdown[L2_WRBK_ACC][HIT] = 0
	L2_cache_stats_breakdown[L2_WRBK_ACC][HIT_RESERVED] = 0
	L2_cache_stats_breakdown[L2_WRBK_ACC][MISS] = 0
	L2_cache_stats_breakdown[L2_WRBK_ACC][RESERVATION_FAIL] = 0
	L2_cache_stats_breakdown[L2_WRBK_ACC][SECTOR_MISS] = 0
	L2_cache_stats_breakdown[INST_ACC_R][HIT] = 352
	L2_cache_stats_breakdown[INST_ACC_R][HIT_RESERVED] = 96
	L2_cache_stats_breakdown[INST_ACC_R][MISS] = 8
	L2_cache_stats_breakdown[INST_ACC_R][RESERVATION_FAIL] = 753
	L2_cache_stats_breakdown[INST_ACC_R][SECTOR_MISS] = 24
	L2_cache_stats_breakdown[L1_WR_ALLOC_R][HIT] = 0
	L2_cache_stats_breakdown[L1_WR_ALLOC_R][HIT_RESERVED] = 0
	L2_cache_stats_breakdown[L1_WR_ALLOC_R][MISS] = 0
	L2_cache_stats_breakdown[L1_WR_ALLOC_R][RESERVATION_FAIL] = 0
	L2_cache_stats_breakdown[L1_WR_ALLOC_R][SECTOR_MISS] = 0
	L2_cache_stats_breakdown[L2_WR_ALLOC_R][HIT] = 0
	L2_cache_stats_breakdown[L2_WR_ALLOC_R][HIT_RESERVED] = 0
	L2_cache_stats_breakdown[L2_WR_ALLOC_R][MISS] = 0
	L2_cache_stats_breakdown[L2_WR_ALLOC_R][RESERVATION_FAIL] = 0
	L2_cache_stats_breakdown[L2_WR_ALLOC_R][SECTOR_MISS] = 0
	L2_cache_stats_breakdown[GLOBAL_ACC_R][TOTAL_ACCESS] = 32504
	L2_cache_stats_breakdown[CONST_ACC_R][TOTAL_ACCESS] = 30
	L2_cache_stats_breakdown[GLOBAL_ACC_W][TOTAL_ACCESS] = 1758
	L2_cache_stats_breakdown[INST_ACC_R][TOTAL_ACCESS] = 480
L2_total_cache_reservation_fail_breakdown:
	L2_cache_stats_fail_breakdown[CONST_ACC_R][MSHR_MERGE_ENRTY_FAIL] = 115
	L2_cache_stats_fail_breakdown[INST_ACC_R][MSHR_MERGE_ENRTY_FAIL] = 753
L2_cache_data_port_util = 0.007
L2_cache_fill_port_util = 0.078

icnt_total_pkts_mem_to_simt=34772
icnt_total_pkts_simt_to_mem=10019
LD_mem_lat_dist  0 0 0 0 0 0 0 0 0 0 0 0 0 0 0 0 0 0 0 0 0 0 0 0 0 0 0
ST_mem_lat_dist  0 0 0 0 0 0 0 0 0 0 0 0 0 0 0 0 0 0 0 0 0 0 0 0 0 0 0
----------------------------Interconnect-DETAILS--------------------------------
Class 0:
Packet latency average = 6.33561
	minimum = 5
	maximum = 53
Network latency average = 6.25558
	minimum = 5
	maximum = 53
Slowest packet = 39683
Flit latency average = 6.22194
	minimum = 5
	maximum = 53
Slowest flit = 40332
Fragmentation average = 0
	minimum = 0
	maximum = 0
Injected packet rate average = 0.0578584
	minimum = 0.0206956 (at node 2)
	maximum = 0.107231 (at node 15)
Accepted packet rate average = 0.0578584
	minimum = 0.0261643 (at node 16)
	maximum = 0.105301 (at node 0)
Injected flit rate average = 0.0592961
	minimum = 0.0230547 (at node 2)
	maximum = 0.107231 (at node 15)
Accepted flit rate average= 0.0592961
	minimum = 0.029274 (at node 24)
	maximum = 0.105301 (at node 0)
Injected packet length average = 1.02485
Accepted packet length average = 1.02485
Total in-flight flits = 0 (0 measured)
====== Overall Traffic Statistics ======
====== Traffic class 0 ======
Packet latency average = 6.33561 (1 samples)
	minimum = 5 (1 samples)
	maximum = 53 (1 samples)
Network latency average = 6.25558 (1 samples)
	minimum = 5 (1 samples)
	maximum = 53 (1 samples)
Flit latency average = 6.22194 (1 samples)
	minimum = 5 (1 samples)
	maximum = 53 (1 samples)
Fragmentation average = 0 (1 samples)
	minimum = 0 (1 samples)
	maximum = 0 (1 samples)
Injected packet rate average = 0.0578584 (1 samples)
	minimum = 0.0206956 (1 samples)
	maximum = 0.107231 (1 samples)
Accepted packet rate average = 0.0578584 (1 samples)
	minimum = 0.0261643 (1 samples)
	maximum = 0.105301 (1 samples)
Injected flit rate average = 0.0592961 (1 samples)
	minimum = 0.0230547 (1 samples)
	maximum = 0.107231 (1 samples)
Accepted flit rate average = 0.0592961 (1 samples)
	minimum = 0.029274 (1 samples)
	maximum = 0.105301 (1 samples)
Injected packet size average = 1.02485 (1 samples)
Accepted packet size average = 1.02485 (1 samples)
Hops average = 1 (1 samples)
----------------------------END-of-Interconnect-DETAILS-------------------------


gpgpu_simulation_time = 0 days, 0 hrs, 0 min, 19 sec (19 sec)
gpgpu_simulation_rate = 668987 (inst/sec)
gpgpu_simulation_rate = 1472 (cycle/sec)
gpgpu_silicon_slowdown = 475543x
GPGPU-Sim: synchronize waiting for inactive GPU simulation
GPGPU-Sim API: Stream Manager State
GPGPU-Sim: detected inactive GPU simulation thread
GPGPU-Sim PTX: Setting up arguments for 4 bytes starting at 0x7fff0e18632c..
GPGPU-Sim PTX: Setting up arguments for 8 bytes starting at 0x7fff0e186320..
GPGPU-Sim PTX: Setting up arguments for 8 bytes starting at 0x7fff0e186318..
GPGPU-Sim PTX: Setting up arguments for 8 bytes starting at 0x7fff0e186310..
GPGPU-Sim PTX: Setting up arguments for 4 bytes starting at 0x7fff0e186328..
GPGPU-Sim PTX: Setting up arguments for 4 bytes starting at 0x7fff0e18630c..
GPGPU-Sim PTX: Setting up arguments for 4 bytes starting at 0x7fff0e1863c0..
GPGPU-Sim PTX: Setting up arguments for 4 bytes starting at 0x7fff0e1863c8..

GPGPU-Sim PTX: cudaLaunch for 0x0x559fde9b5ba4 (mode=performance simulation) on stream 0
GPGPU-Sim PTX: PDOM analysis already done for _Z14dynproc_kerneliPiS_S_iiii 
GPGPU-Sim PTX: pushing kernel '_Z14dynproc_kerneliPiS_S_iiii' to stream 0, gridDim= (47,1,1) blockDim = (256,1,1) 
GPGPU-Sim uArch: Shader 2 bind to kernel 2 '_Z14dynproc_kerneliPiS_S_iiii'
GPGPU-Sim uArch: Shader 3 bind to kernel 2 '_Z14dynproc_kerneliPiS_S_iiii'
GPGPU-Sim uArch: Shader 4 bind to kernel 2 '_Z14dynproc_kerneliPiS_S_iiii'
GPGPU-Sim uArch: Shader 5 bind to kernel 2 '_Z14dynproc_kerneliPiS_S_iiii'
GPGPU-Sim uArch: Shader 6 bind to kernel 2 '_Z14dynproc_kerneliPiS_S_iiii'
GPGPU-Sim uArch: Shader 7 bind to kernel 2 '_Z14dynproc_kerneliPiS_S_iiii'
GPGPU-Sim uArch: Shader 8 bind to kernel 2 '_Z14dynproc_kerneliPiS_S_iiii'
GPGPU-Sim uArch: Shader 9 bind to kernel 2 '_Z14dynproc_kerneliPiS_S_iiii'
GPGPU-Sim uArch: Shader 10 bind to kernel 2 '_Z14dynproc_kerneliPiS_S_iiii'
GPGPU-Sim uArch: Shader 11 bind to kernel 2 '_Z14dynproc_kerneliPiS_S_iiii'
GPGPU-Sim uArch: Shader 12 bind to kernel 2 '_Z14dynproc_kerneliPiS_S_iiii'
GPGPU-Sim uArch: Shader 13 bind to kernel 2 '_Z14dynproc_kerneliPiS_S_iiii'
GPGPU-Sim uArch: Shader 14 bind to kernel 2 '_Z14dynproc_kerneliPiS_S_iiii'
GPGPU-Sim uArch: Shader 0 bind to kernel 2 '_Z14dynproc_kerneliPiS_S_iiii'
GPGPU-Sim uArch: Shader 1 bind to kernel 2 '_Z14dynproc_kerneliPiS_S_iiii'
Destroy streams for kernel 2: size 0
kernel_name = _Z14dynproc_kerneliPiS_S_iiii 
kernel_launch_uid = 2 
gpu_sim_cycle = 27030
gpu_sim_insn = 12710760
gpu_ipc =     470.2464
gpu_tot_sim_cycle = 55007
gpu_tot_sim_insn = 25421520
gpu_tot_ipc =     462.1506
gpu_tot_issued_cta = 94
gpu_occupancy = 45.9211% 
gpu_tot_occupancy = 46.4110% 
max_total_param_size = 0
gpu_stall_dramfull = 158
gpu_stall_icnt2sh    = 0
partiton_level_parallism =       0.3255
partiton_level_parallism_total  =       0.3223
partiton_level_parallism_util =       1.3523
partiton_level_parallism_util_total  =       1.3679
L2_BW  =      28.3932 GB/Sec
L2_BW_total  =      28.1121 GB/Sec
gpu_total_sim_rate=687068

========= Core cache stats =========
L1I_cache:
	L1I_total_cache_accesses = 450074
	L1I_total_cache_misses = 2682
	L1I_total_cache_miss_rate = 0.0060
	L1I_total_cache_pending_hits = 0
	L1I_total_cache_reservation_fails = 0
L1D_cache:
	L1D_cache_core[0]: Access = 2347, Miss = 1318, Miss_rate = 0.562, Pending_hits = 1020, Reservation_fails = 0
	L1D_cache_core[1]: Access = 2134, Miss = 1210, Miss_rate = 0.567, Pending_hits = 921, Reservation_fails = 0
	L1D_cache_core[2]: Access = 2347, Miss = 1318, Miss_rate = 0.562, Pending_hits = 1022, Reservation_fails = 0
	L1D_cache_core[3]: Access = 2134, Miss = 1210, Miss_rate = 0.567, Pending_hits = 919, Reservation_fails = 0
	L1D_cache_core[4]: Access = 2022, Miss = 1140, Miss_rate = 0.564, Pending_hits = 882, Reservation_fails = 9
	L1D_cache_core[5]: Access = 2022, Miss = 1140, Miss_rate = 0.564, Pending_hits = 882, Reservation_fails = 4
	L1D_cache_core[6]: Access = 2022, Miss = 1140, Miss_rate = 0.564, Pending_hits = 882, Reservation_fails = 0
	L1D_cache_core[7]: Access = 2022, Miss = 1140, Miss_rate = 0.564, Pending_hits = 882, Reservation_fails = 0
	L1D_cache_core[8]: Access = 2022, Miss = 1140, Miss_rate = 0.564, Pending_hits = 882, Reservation_fails = 3
	L1D_cache_core[9]: Access = 2022, Miss = 1140, Miss_rate = 0.564, Pending_hits = 882, Reservation_fails = 0
	L1D_cache_core[10]: Access = 2022, Miss = 1140, Miss_rate = 0.564, Pending_hits = 882, Reservation_fails = 0
	L1D_cache_core[11]: Access = 2022, Miss = 1140, Miss_rate = 0.564, Pending_hits = 882, Reservation_fails = 0
	L1D_cache_core[12]: Access = 2022, Miss = 1140, Miss_rate = 0.564, Pending_hits = 882, Reservation_fails = 0
	L1D_cache_core[13]: Access = 2022, Miss = 1140, Miss_rate = 0.564, Pending_hits = 882, Reservation_fails = 4
	L1D_cache_core[14]: Access = 2022, Miss = 1140, Miss_rate = 0.564, Pending_hits = 882, Reservation_fails = 0
	L1D_total_cache_accesses = 31204
	L1D_total_cache_misses = 17596
	L1D_total_cache_miss_rate = 0.5639
	L1D_total_cache_pending_hits = 13584
	L1D_total_cache_reservation_fails = 20
	L1D_cache_data_port_util = 0.000
	L1D_cache_fill_port_util = 0.025
L1C_cache:
	L1C_total_cache_accesses = 5264
	L1C_total_cache_misses = 480
	L1C_total_cache_miss_rate = 0.0912
	L1C_total_cache_pending_hits = 0
	L1C_total_cache_reservation_fails = 3389
L1T_cache:
	L1T_total_cache_accesses = 0
	L1T_total_cache_misses = 0
	L1T_total_cache_pending_hits = 0
	L1T_total_cache_reservation_fails = 0

Total_core_cache_stats:
	Total_core_cache_stats_breakdown[GLOBAL_ACC_R][HIT] = 24
	Total_core_cache_stats_breakdown[GLOBAL_ACC_R][HIT_RESERVED] = 13584
	Total_core_cache_stats_breakdown[GLOBAL_ACC_R][MISS] = 16252
	Total_core_cache_stats_breakdown[GLOBAL_ACC_R][RESERVATION_FAIL] = 19
	Total_core_cache_stats_breakdown[GLOBAL_ACC_R][SECTOR_MISS] = 0
	Total_core_cache_stats_breakdown[LOCAL_ACC_R][HIT] = 0
	Total_core_cache_stats_breakdown[LOCAL_ACC_R][HIT_RESERVED] = 0
	Total_core_cache_stats_breakdown[LOCAL_ACC_R][MISS] = 0
	Total_core_cache_stats_breakdown[LOCAL_ACC_R][RESERVATION_FAIL] = 0
	Total_core_cache_stats_breakdown[LOCAL_ACC_R][SECTOR_MISS] = 0
	Total_core_cache_stats_breakdown[CONST_ACC_R][HIT] = 4784
	Total_core_cache_stats_breakdown[CONST_ACC_R][HIT_RESERVED] = 0
	Total_core_cache_stats_breakdown[CONST_ACC_R][MISS] = 480
	Total_core_cache_stats_breakdown[CONST_ACC_R][RESERVATION_FAIL] = 3389
	Total_core_cache_stats_breakdown[CONST_ACC_R][SECTOR_MISS] = 0
	Total_core_cache_stats_breakdown[TEXTURE_ACC_R][HIT] = 0
	Total_core_cache_stats_breakdown[TEXTURE_ACC_R][HIT_RESERVED] = 0
	Total_core_cache_stats_breakdown[TEXTURE_ACC_R][MISS] = 0
	Total_core_cache_stats_breakdown[TEXTURE_ACC_R][RESERVATION_FAIL] = 0
	Total_core_cache_stats_breakdown[TEXTURE_ACC_R][SECTOR_MISS] = 0
	Total_core_cache_stats_breakdown[GLOBAL_ACC_W][HIT] = 0
	Total_core_cache_stats_breakdown[GLOBAL_ACC_W][HIT_RESERVED] = 0
	Total_core_cache_stats_breakdown[GLOBAL_ACC_W][MISS] = 1344
	Total_core_cache_stats_breakdown[GLOBAL_ACC_W][RESERVATION_FAIL] = 1
	Total_core_cache_stats_breakdown[GLOBAL_ACC_W][SECTOR_MISS] = 0
	Total_core_cache_stats_breakdown[LOCAL_ACC_W][HIT] = 0
	Total_core_cache_stats_breakdown[LOCAL_ACC_W][HIT_RESERVED] = 0
	Total_core_cache_stats_breakdown[LOCAL_ACC_W][MISS] = 0
	Total_core_cache_stats_breakdown[LOCAL_ACC_W][RESERVATION_FAIL] = 0
	Total_core_cache_stats_breakdown[LOCAL_ACC_W][SECTOR_MISS] = 0
	Total_core_cache_stats_breakdown[L1_WRBK_ACC][HIT] = 0
	Total_core_cache_stats_breakdown[L1_WRBK_ACC][HIT_RESERVED] = 0
	Total_core_cache_stats_breakdown[L1_WRBK_ACC][MISS] = 0
	Total_core_cache_stats_breakdown[L1_WRBK_ACC][RESERVATION_FAIL] = 0
	Total_core_cache_stats_breakdown[L1_WRBK_ACC][SECTOR_MISS] = 0
	Total_core_cache_stats_breakdown[L2_WRBK_ACC][HIT] = 0
	Total_core_cache_stats_breakdown[L2_WRBK_ACC][HIT_RESERVED] = 0
	Total_core_cache_stats_breakdown[L2_WRBK_ACC][MISS] = 0
	Total_core_cache_stats_breakdown[L2_WRBK_ACC][RESERVATION_FAIL] = 0
	Total_core_cache_stats_breakdown[L2_WRBK_ACC][SECTOR_MISS] = 0
	Total_core_cache_stats_breakdown[INST_ACC_R][HIT] = 447392
	Total_core_cache_stats_breakdown[INST_ACC_R][HIT_RESERVED] = 0
	Total_core_cache_stats_breakdown[INST_ACC_R][MISS] = 2682
	Total_core_cache_stats_breakdown[INST_ACC_R][RESERVATION_FAIL] = 0
	Total_core_cache_stats_breakdown[INST_ACC_R][SECTOR_MISS] = 0
	Total_core_cache_stats_breakdown[L1_WR_ALLOC_R][HIT] = 0
	Total_core_cache_stats_breakdown[L1_WR_ALLOC_R][HIT_RESERVED] = 0
	Total_core_cache_stats_breakdown[L1_WR_ALLOC_R][MISS] = 0
	Total_core_cache_stats_breakdown[L1_WR_ALLOC_R][RESERVATION_FAIL] = 0
	Total_core_cache_stats_breakdown[L1_WR_ALLOC_R][SECTOR_MISS] = 0
	Total_core_cache_stats_breakdown[L2_WR_ALLOC_R][HIT] = 0
	Total_core_cache_stats_breakdown[L2_WR_ALLOC_R][HIT_RESERVED] = 0
	Total_core_cache_stats_breakdown[L2_WR_ALLOC_R][MISS] = 0
	Total_core_cache_stats_breakdown[L2_WR_ALLOC_R][RESERVATION_FAIL] = 0
	Total_core_cache_stats_breakdown[L2_WR_ALLOC_R][SECTOR_MISS] = 0
	Total_core_cache_stats_breakdown[GLOBAL_ACC_R][TOTAL_ACCESS] = 29860
	Total_core_cache_stats_breakdown[CONST_ACC_R][TOTAL_ACCESS] = 5264
	Total_core_cache_stats_breakdown[GLOBAL_ACC_W][TOTAL_ACCESS] = 1344
	Total_core_cache_stats_breakdown[INST_ACC_R][TOTAL_ACCESS] = 450074

Total_core_cache_fail_stats:
	Total_core_cache_fail_stats_breakdown[GLOBAL_ACC_R][MISS_QUEUE_FULL] = 19
	Total_core_cache_fail_stats_breakdown[CONST_ACC_R][MSHR_MERGE_ENRTY_FAIL] = 3389
	Total_core_cache_fail_stats_breakdown[GLOBAL_ACC_W][MISS_QUEUE_FULL] = 1
ctas_completed 94, Shader 0 warp_id issue ditsribution:
warp_id:
0, 1, 2, 3, 4, 5, 6, 7, 8, 9, 10, 11, 12, 13, 14, 15, 16, 17, 18, 19, 20, 21, 22, 23, 24, 25, 26, 27, 28, 29, 30, 31, 
distro:
2332, 2332, 2332, 2332, 2332, 2332, 2332, 2332, 2332, 2332, 2332, 2332, 2332, 2332, 2332, 2332, 2332, 2332, 2332, 2332, 2332, 2332, 2332, 2332, 1166, 1166, 1166, 1166, 1166, 1166, 1166, 1166, 
gpgpu_n_tot_thrd_icount = 27882304
gpgpu_n_tot_w_icount = 871322
gpgpu_n_stall_shd_mem = 18269
gpgpu_n_mem_read_local = 0
gpgpu_n_mem_write_local = 0
gpgpu_n_mem_read_global = 16252
gpgpu_n_mem_write_global = 1344
gpgpu_n_mem_texture = 0
gpgpu_n_mem_const = 15
gpgpu_n_load_insn  = 458640
gpgpu_n_store_insn = 20000
gpgpu_n_shmem_insn = 2613440
gpgpu_n_sstarr_insn = 0
gpgpu_n_tex_insn = 0
gpgpu_n_const_mem_insn = 0
gpgpu_n_param_mem_insn = 168448
gpgpu_n_shmem_bkconflict = 0
gpgpu_n_cache_bkconflict = 0
gpgpu_n_intrawarp_mshr_merge = 0
gpgpu_n_cmem_portconflict = 3389
gpgpu_stall_shd_mem[c_mem][resource_stall] = 3389
gpgpu_stall_shd_mem[s_mem][bk_conf] = 0
gpgpu_stall_shd_mem[gl_mem][resource_stall] = 0
gpgpu_stall_shd_mem[gl_mem][coal_stall] = 14880
gpgpu_stall_shd_mem[gl_mem][data_port_stall] = 0
gpu_reg_bank_conflict_stalls = 0
Warp Occupancy Distribution:
Stall:77567	W0_Idle:37593	W0_Scoreboard:340200	W1:0	W2:0	W3:0	W4:0	W5:0	W6:0	W7:0	W8:0	W9:0	W10:0	W11:0	W12:6438	W13:4968	W14:4968	W15:4968	W16:4968	W17:4968	W18:4968	W19:4968	W20:6070	W21:4968	W22:4968	W23:4968	W24:4968	W25:4968	W26:4968	W27:4968	W28:4968	W29:4968	W30:4968	W31:4968	W32:769390
single_issue_nums: WS0:436212	WS1:435110	
dual_issue_nums: WS0:0	WS1:0	
traffic_breakdown_coretomem[CONST_ACC_R] = 120 {8:15,}
traffic_breakdown_coretomem[GLOBAL_ACC_R] = 130016 {8:16252,}
traffic_breakdown_coretomem[GLOBAL_ACC_W] = 123264 {40:372,72:372,136:600,}
traffic_breakdown_coretomem[INST_ACC_R] = 960 {8:120,}
traffic_breakdown_memtocore[CONST_ACC_R] = 1200 {40:30,}
traffic_breakdown_memtocore[GLOBAL_ACC_R] = 2600320 {40:65008,}
traffic_breakdown_memtocore[GLOBAL_ACC_W] = 28128 {8:3516,}
traffic_breakdown_memtocore[INST_ACC_R] = 19200 {40:480,}
maxmflatency = 519 
max_icnt2mem_latency = 195 
maxmrqlatency = 165 
max_icnt2sh_latency = 55 
averagemflatency = 241 
avg_icnt2mem_latency = 11 
avg_mrq_latency = 12 
avg_icnt2sh_latency = 8 
mrq_lat_table:13502 	9063 	8566 	8110 	7793 	3107 	1705 	168 	0 	0 	0 	0 	0 	0 	0 	0 	0 	0 	0 	0 	0 	0 	0 	0 	0 	0 	0 	0 	0 	0 	0 	0 	
dq_lat_table:0 	0 	0 	0 	0 	0 	0 	0 	0 	0 	0 	0 	0 	0 	0 	0 	0 	0 	0 	0 	0 	0 	0 	0 	0 	0 	0 	0 	0 	0 	0 	0 	
mf_lat_table:0 	0 	0 	0 	0 	0 	0 	44558 	23993 	3 	0 	0 	0 	0 	0 	0 	0 	0 	0 	0 	0 	0 	0 	0 	0 	0 	0 	0 	0 	0 	0 	0 	
icnt2mem_lat_table:0 	0 	96 	33 	6 	17367 	228 	1 	0 	0 	0 	0 	0 	0 	0 	0 	0 	0 	0 	0 	0 	0 	0 	0 	
[...]
dram[2]:        420       390       419       352       512       507       313       323       320       331       345       347       315       369       300       316
dram[3]:        416       407       398       375       519       508       318       329       314       337       324       371       325       328       317       310
dram[4]:        429       394       380       413       508       503       308       328       296       316       313       342       310       341       355       340
dram[5]:        412       370       368       395       506       498       330       346       334       314       313       337       307       321       350       343
Memory Partition 0: 
Cache L2_bank_000:
MSHR contents

Cache L2_bank_001:
MSHR contents

In Dram Latency Queue (total = 0): 
DRAM[0]: 16 bks, busW=4 BL=8 CL=12, tRRD=6 tCCD=2, tRCD=12 tRAS=28 tRP=12 tRC=40
n_cmd=177550 n_nop=155430 n_act=334 n_pre=318 n_ref_event=94145149058640 n_req=21307 n_rd=21132 n_rd_L2_A=0 n_write=0 n_wr_bk=349 bw_util=0.242
n_activity=71524 dram_eff=0.6007
bk0: 1488a 171943i bk1: 1464a 172470i bk2: 1382a 172081i bk3: 1382a 172218i bk4: 1312a 173692i bk5: 1304a 173768i bk6: 1280a 174122i bk7: 1280a 174097i bk8: 1280a 174235i bk9: 1280a 174147i bk10: 1280a 174229i bk11: 1280a 174087i bk12: 1280a 174389i bk13: 1280a 174083i bk14: 1280a 174554i bk15: 1280a 174441i 

------------------------------------------------------------------------

Row_Buffer_Locality = 0.985028
Row_Buffer_Locality_read = 0.987980
Row_Buffer_Locality_write = 0.628571
Bank_Level_Parallism = 1.490115
Bank_Level_Parallism_Col = 0.671766
Bank_Level_Parallism_Ready = 1.113385
write_to_read_ratio_blp_rw_average = 0.000000
GrpLevelPara = 0.000000 

BW Util details:
bwutil = 0.241971 
total_CMD = 177550 
util_bw = 42962 
Wasted_Col = 12691 
Wasted_Row = 2212 
Idle = 119685 

BW Util Bottlenecks: 
RCDc_limit = 2095 
RCDWRc_limit = 308 
WTRc_limit = 274 
RTWc_limit = 1106 
CCDLc_limit = 10552 
rwq = 0 
CCDLc_limit_alone = 10298 
WTRc_limit_alone = 260 
RTWc_limit_alone = 866 

Commands details: 
total_CMD = 177550 
n_nop = 155430 
Read = 21132 
Write = 0 
L2_Alloc = 0 
L2_WB = 349 
n_act = 334 
n_pre = 318 
n_ref = 94145149058640 
n_req = 21307 
total_req = 21481 

Dual Bus Interface Util: 
issued_total_row = 652 
issued_total_col = 21481 
Row_Bus_Util =  0.003672 
CoL_Bus_Util = 0.120986 
Either_Row_CoL_Bus_Util = 0.124585 
Issued_on_Two_Bus_Simul_Util = 0.000073 
issued_two_Eff = 0.000588 
queue_avg = 1.638553 


dram_util_bins: 0 0 0 0 0 0 0 0 0 0
dram_eff_bins: 0 0 0 0 0 0 0 0 0 0
mrqq: max=64 avg=1.63855
Memory Partition 1: 
Cache L2_bank_002:
MSHR contents

Cache L2_bank_003:
MSHR contents

In Dram Latency Queue (total = 0): 
DRAM[1]: 16 bks, busW=4 BL=8 CL=12, tRRD=6 tCCD=2, tRCD=12 tRAS=28 tRP=12 tRC=40
n_cmd=177550 n_nop=155468 n_act=316 n_pre=300 n_ref_event=0 n_req=21294 n_rd=21118 n_rd_L2_A=0 n_write=0 n_wr_bk=350 bw_util=0.2418
n_activity=70815 dram_eff=0.6063
bk0: 1484a 171710i bk1: 1462a 172270i bk2: 1376a 172071i bk3: 1380a 172526i bk4: 1312a 173657i bk5: 1304a 173687i bk6: 1280a 174034i bk7: 1280a 174045i bk8: 1280a 174353i bk9: 1280a 173993i bk10: 1280a 174086i bk11: 1280a 174137i bk12: 1280a 174434i bk13: 1280a 174158i bk14: 1280a 174513i bk15: 1280a 174344i 

------------------------------------------------------------------------

Row_Buffer_Locality = 0.985865
Row_Buffer_Locality_read = 0.988683
Row_Buffer_Locality_write = 0.647727
Bank_Level_Parallism = 1.502203
Bank_Level_Parallism_Col = 1.004557
Bank_Level_Parallism_Ready = 1.123237
write_to_read_ratio_blp_rw_average = 0.000000
GrpLevelPara = 0.000000 

BW Util details:
bwutil = 0.241825 
total_CMD = 177550 
util_bw = 42936 
Wasted_Col = 12407 
Wasted_Row = 2293 
Idle = 119914 

BW Util Bottlenecks: 
RCDc_limit = 1958 
RCDWRc_limit = 295 
WTRc_limit = 128 
RTWc_limit = 1139 
CCDLc_limit = 10507 
rwq = 0 
CCDLc_limit_alone = 10289 
WTRc_limit_alone = 117 
RTWc_limit_alone = 932 

Commands details: 
total_CMD = 177550 
n_nop = 155468 
Read = 21118 
Write = 0 
L2_Alloc = 0 
L2_WB = 350 
n_act = 316 
n_pre = 300 
n_ref = 0 
n_req = 21294 
total_req = 21468 

Dual Bus Interface Util: 
issued_total_row = 616 
issued_total_col = 21468 
Row_Bus_Util =  0.003469 
CoL_Bus_Util = 0.120912 
Either_Row_CoL_Bus_Util = 0.124371 
Issued_on_Two_Bus_Simul_Util = 0.000011 
issued_two_Eff = 0.000091 
queue_avg = 1.677663 


dram_util_bins: 0 0 0 0 0 0 0 0 0 0
dram_eff_bins: 0 0 0 0 0 0 0 0 0 0
mrqq: max=64 avg=1.67766
Memory Partition 2: 
Cache L2_bank_004:
MSHR contents

Cache L2_bank_005:
MSHR contents

In Dram Latency Queue (total = 0): 
DRAM[2]: 16 bks, busW=4 BL=8 CL=12, tRRD=6 tCCD=2, tRCD=12 tRAS=28 tRP=12 tRC=40
n_cmd=177550 n_nop=155508 n_act=298 n_pre=282 n_ref_event=0 n_req=21300 n_rd=21126 n_rd_L2_A=0 n_write=0 n_wr_bk=348 bw_util=0.2419
n_activity=70643 dram_eff=0.608
bk0: 1484a 172227i bk1: 1466a 172644i bk2: 1382a 172417i bk3: 1378a 172808i bk4: 1312a 173742i bk5: 1304a 173848i bk6: 1280a 173963i bk7: 1280a 173981i bk8: 1280a 174192i bk9: 1280a 174025i bk10: 1280a 174252i bk11: 1280a 173965i bk12: 1280a 174263i bk13: 1280a 174050i bk14: 1280a 174503i bk15: 1280a 174455i 

------------------------------------------------------------------------

Row_Buffer_Locality = 0.986761
Row_Buffer_Locality_read = 0.989397
Row_Buffer_Locality_write = 0.666667
Bank_Level_Parallism = 1.497008
Bank_Level_Parallism_Col = 1.004513
Bank_Level_Parallism_Ready = 1.117165
write_to_read_ratio_blp_rw_average = 0.000000
GrpLevelPara = 0.000000 

BW Util details:
bwutil = 0.241892 
total_CMD = 177550 
util_bw = 42948 
Wasted_Col = 12175 
Wasted_Row = 1934 
Idle = 120493 

BW Util Bottlenecks: 
RCDc_limit = 1918 
RCDWRc_limit = 293 
WTRc_limit = 147 
RTWc_limit = 860 
CCDLc_limit = 10339 
rwq = 0 
CCDLc_limit_alone = 10114 
WTRc_limit_alone = 136 
RTWc_limit_alone = 646 

Commands details: 
total_CMD = 177550 
n_nop = 155508 
Read = 21126 
Write = 0 
L2_Alloc = 0 
L2_WB = 348 
n_act = 298 
n_pre = 282 
n_ref = 0 
n_req = 21300 
total_req = 21474 

Dual Bus Interface Util: 
issued_total_row = 580 
issued_total_col = 21474 
Row_Bus_Util =  0.003267 
CoL_Bus_Util = 0.120946 
Either_Row_CoL_Bus_Util = 0.124145 
Issued_on_Two_Bus_Simul_Util = 0.000068 
issued_two_Eff = 0.000544 
queue_avg = 1.682371 


dram_util_bins: 0 0 0 0 0 0 0 0 0 0
dram_eff_bins: 0 0 0 0 0 0 0 0 0 0
mrqq: max=64 avg=1.68237
Memory Partition 3: 
Cache L2_bank_006:
MSHR contents

Cache L2_bank_007:
MSHR contents

In Dram Latency Queue (total = 0): 
DRAM[3]: 16 bks, busW=4 BL=8 CL=12, tRRD=6 tCCD=2, tRCD=12 tRAS=28 tRP=12 tRC=40
n_cmd=177550 n_nop=155487 n_act=311 n_pre=295 n_ref_event=0 n_req=21292 n_rd=21120 n_rd_L2_A=0 n_write=0 n_wr_bk=344 bw_util=0.2418
n_activity=71641 dram_eff=0.5992
bk0: 1476a 172413i bk1: 1468a 172536i bk2: 1386a 172450i bk3: 1382a 172345i bk4: 1304a 173728i bk5: 1304a 173745i bk6: 1280a 174247i bk7: 1280a 174037i bk8: 1280a 174192i bk9: 1280a 174181i bk10: 1280a 174306i bk11: 1280a 174165i bk12: 1280a 174271i bk13: 1280a 174113i bk14: 1280a 174484i bk15: 1280a 174422i 

------------------------------------------------------------------------

Row_Buffer_Locality = 0.986145
Row_Buffer_Locality_read = 0.988920
Row_Buffer_Locality_write = 0.645349
Bank_Level_Parallism = 1.470202
Bank_Level_Parallism_Col = 1.454805
Bank_Level_Parallism_Ready = 1.112648
write_to_read_ratio_blp_rw_average = 0.038006
GrpLevelPara = 1.401133 

BW Util details:
bwutil = 0.241780 
total_CMD = 177550 
util_bw = 42928 
Wasted_Col = 12791 
Wasted_Row = 2162 
Idle = 119669 

BW Util Bottlenecks: 
RCDc_limit = 2050 
RCDWRc_limit = 293 
WTRc_limit = 238 
RTWc_limit = 889 
CCDLc_limit = 10771 
rwq = 0 
CCDLc_limit_alone = 10567 
WTRc_limit_alone = 208 
RTWc_limit_alone = 715 

Commands details: 
total_CMD = 177550 
n_nop = 155487 
Read = 21120 
Write = 0 
L2_Alloc = 0 
L2_WB = 344 
n_act = 311 
n_pre = 295 
n_ref = 0 
n_req = 21292 
total_req = 21464 

Dual Bus Interface Util: 
issued_total_row = 606 
issued_total_col = 21464 
Row_Bus_Util =  0.003413 
CoL_Bus_Util = 0.120890 
Either_Row_CoL_Bus_Util = 0.124264 
Issued_on_Two_Bus_Simul_Util = 0.000039 
issued_two_Eff = 0.000317 
queue_avg = 1.647378 


dram_util_bins: 0 0 0 0 0 0 0 0 0 0
dram_eff_bins: 0 0 0 0 0 0 0 0 0 0
mrqq: max=64 avg=1.64738
Memory Partition 4: 
Cache L2_bank_008:
MSHR contents

Cache L2_bank_009:
MSHR contents

In Dram Latency Queue (total = 0): 
DRAM[4]: 16 bks, busW=4 BL=8 CL=12, tRRD=6 tCCD=2, tRCD=12 tRAS=28 tRP=12 tRC=40
n_cmd=177550 n_nop=155480 n_act=323 n_pre=307 n_ref_event=4565658604079112714 n_req=21272 n_rd=21098 n_rd_L2_A=0 n_write=0 n_wr_bk=348 bw_util=0.2416
n_activity=72212 dram_eff=0.594
bk0: 1460a 172712i bk1: 1466a 172360i bk2: 1384a 172301i bk3: 1380a 172463i bk4: 1304a 173645i bk5: 1304a 173737i bk6: 1280a 174139i bk7: 1280a 174177i bk8: 1280a 174394i bk9: 1280a 174290i bk10: 1280a 174389i bk11: 1280a 174251i bk12: 1280a 174271i bk13: 1280a 174079i bk14: 1280a 174335i bk15: 1280a 174126i 

------------------------------------------------------------------------

Row_Buffer_Locality = 0.985568
Row_Buffer_Locality_read = 0.988388
Row_Buffer_Locality_write = 0.643678
Bank_Level_Parallism = 1.461220
Bank_Level_Parallism_Col = 1.445662
Bank_Level_Parallism_Ready = 1.113481
write_to_read_ratio_blp_rw_average = 0.040660
GrpLevelPara = 1.390307 

BW Util details:
bwutil = 0.241577 
total_CMD = 177550 
util_bw = 42892 
Wasted_Col = 13101 
Wasted_Row = 2207 
Idle = 119350 

BW Util Bottlenecks: 
RCDc_limit = 2151 
RCDWRc_limit = 318 
WTRc_limit = 270 
RTWc_limit = 955 
CCDLc_limit = 10894 
rwq = 0 
CCDLc_limit_alone = 10655 
WTRc_limit_alone = 248 
RTWc_limit_alone = 738 

Commands details: 
total_CMD = 177550 
n_nop = 155480 
Read = 21098 
Write = 0 
L2_Alloc = 0 
L2_WB = 348 
n_act = 323 
n_pre = 307 
n_ref = 4565658604079112714 
n_req = 21272 
total_req = 21446 

Dual Bus Interface Util: 
issued_total_row = 630 
issued_total_col = 21446 
Row_Bus_Util =  0.003548 
CoL_Bus_Util = 0.120789 
Either_Row_CoL_Bus_Util = 0.124303 
Issued_on_Two_Bus_Simul_Util = 0.000034 
issued_two_Eff = 0.000272 
queue_avg = 1.603261 


dram_util_bins: 0 0 0 0 0 0 0 0 0 0
dram_eff_bins: 0 0 0 0 0 0 0 0 0 0
mrqq: max=64 avg=1.60326
Memory Partition 5: 
Cache L2_bank_010:
MSHR contents

Cache L2_bank_011:
MSHR contents

In Dram Latency Queue (total = 0): 
DRAM[5]: 16 bks, busW=4 BL=8 CL=12, tRRD=6 tCCD=2, tRCD=12 tRAS=28 tRP=12 tRC=40
n_cmd=177550 n_nop=155478 n_act=324 n_pre=308 n_ref_event=0 n_req=21276 n_rd=21104 n_rd_L2_A=0 n_write=0 n_wr_bk=344 bw_util=0.2416
n_activity=71451 dram_eff=0.6004
bk0: 1462a 172215i bk1: 1476a 172146i bk2: 1380a 172468i bk3: 1378a 172310i bk4: 1304a 173675i bk5: 1304a 173860i bk6: 1280a 174038i bk7: 1280a 173990i bk8: 1280a 174338i bk9: 1280a 174293i bk10: 1280a 174304i bk11: 1280a 174080i bk12: 1280a 174257i bk13: 1280a 174063i bk14: 1280a 174472i bk15: 1280a 174415i 

------------------------------------------------------------------------

Row_Buffer_Locality = 0.985524
Row_Buffer_Locality_read = 0.988343
Row_Buffer_Locality_write = 0.639535
Bank_Level_Parallism = 1.488824
Bank_Level_Parallism_Col = 0.000000
Bank_Level_Parallism_Ready = 1.115315
write_to_read_ratio_blp_rw_average = 0.000000
GrpLevelPara = 0.000000 

BW Util details:
bwutil = 0.241600 
total_CMD = 177550 
util_bw = 42896 
Wasted_Col = 12601 
Wasted_Row = 2152 
Idle = 119901 

BW Util Bottlenecks: 
RCDc_limit = 2117 
RCDWRc_limit = 311 
WTRc_limit = 156 
RTWc_limit = 1001 
CCDLc_limit = 10522 
rwq = 0 
CCDLc_limit_alone = 10300 
WTRc_limit_alone = 150 
RTWc_limit_alone = 785 

Commands details: 
total_CMD = 177550 
n_nop = 155478 
Read = 21104 
Write = 0 
L2_Alloc = 0 
L2_WB = 344 
n_act = 324 
n_pre = 308 
n_ref = 0 
n_req = 21276 
total_req = 21448 

Dual Bus Interface Util: 
issued_total_row = 632 
issued_total_col = 21448 
Row_Bus_Util =  0.003560 
CoL_Bus_Util = 0.120800 
Either_Row_CoL_Bus_Util = 0.124314 
Issued_on_Two_Bus_Simul_Util = 0.000045 
issued_two_Eff = 0.000362 
queue_avg = 1.612295 


dram_util_bins: 0 0 0 0 0 0 0 0 0 0
dram_eff_bins: 0 0 0 0 0 0 0 0 0 0
mrqq: max=64 avg=1.6123

========= L2 cache stats =========
L2_cache_bank[0]: Access = 14261, Miss = 11289, Miss_rate = 0.792, Pending_hits = 1510, Reservation_fails = 343
L2_cache_bank[1]: Access = 14121, Miss = 11250, Miss_rate = 0.797, Pending_hits = 1583, Reservation_fails = 2
L2_cache_bank[2]: Access = 14261, Miss = 11282, Miss_rate = 0.791, Pending_hits = 1602, Reservation_fails = 225
L2_cache_bank[3]: Access = 14127, Miss = 11239, Miss_rate = 0.796, Pending_hits = 1606, Reservation_fails = 0
L2_cache_bank[4]: Access = 14242, Miss = 11287, Miss_rate = 0.793, Pending_hits = 1489, Reservation_fails = 158
L2_cache_bank[5]: Access = 14130, Miss = 11241, Miss_rate = 0.796, Pending_hits = 1551, Reservation_fails = 0
L2_cache_bank[6]: Access = 14243, Miss = 11277, Miss_rate = 0.792, Pending_hits = 1566, Reservation_fails = 143
L2_cache_bank[7]: Access = 14096, Miss = 11245, Miss_rate = 0.798, Pending_hits = 1522, Reservation_fails = 0
L2_cache_bank[8]: Access = 14128, Miss = 11254, Miss_rate = 0.797, Pending_hits = 1602, Reservation_fails = 6
L2_cache_bank[9]: Access = 14093, Miss = 11247, Miss_rate = 0.798, Pending_hits = 1429, Reservation_fails = 2
L2_cache_bank[10]: Access = 14117, Miss = 11252, Miss_rate = 0.797, Pending_hits = 1602, Reservation_fails = 5
L2_cache_bank[11]: Access = 14115, Miss = 11257, Miss_rate = 0.798, Pending_hits = 1408, Reservation_fails = 1
L2_total_cache_accesses = 169934
L2_total_cache_misses = 135120
L2_total_cache_miss_rate = 0.7951
L2_total_cache_pending_hits = 18470
L2_total_cache_reservation_fails = 885
L2_total_cache_breakdown:
	L2_cache_stats_breakdown[GLOBAL_ACC_R][HIT] = 15644
	L2_cache_stats_breakdown[GLOBAL_ACC_R][HIT_RESERVED] = 18368
	L2_cache_stats_breakdown[GLOBAL_ACC_R][MISS] = 31251
	L2_cache_stats_breakdown[GLOBAL_ACC_R][RESERVATION_FAIL] = 17
	L2_cache_stats_breakdown[GLOBAL_ACC_R][SECTOR_MISS] = 95413
	L2_cache_stats_breakdown[LOCAL_ACC_R][HIT] = 0
	L2_cache_stats_breakdown[LOCAL_ACC_R][HIT_RESERVED] = 0
	L2_cache_stats_breakdown[LOCAL_ACC_R][MISS] = 0
	L2_cache_stats_breakdown[LOCAL_ACC_R][RESERVATION_FAIL] = 0
	L2_cache_stats_breakdown[LOCAL_ACC_R][SECTOR_MISS] = 0
	L2_cache_stats_breakdown[CONST_ACC_R][HIT] = 22
	L2_cache_stats_breakdown[CONST_ACC_R][HIT_RESERVED] = 6
	L2_cache_stats_breakdown[CONST_ACC_R][MISS] = 1
	L2_cache_stats_breakdown[CONST_ACC_R][RESERVATION_FAIL] = 115
	L2_cache_stats_breakdown[CONST_ACC_R][SECTOR_MISS] = 1
	L2_cache_stats_breakdown[TEXTURE_ACC_R][HIT] = 0
	L2_cache_stats_breakdown[TEXTURE_ACC_R][HIT_RESERVED] = 0
	L2_cache_stats_breakdown[TEXTURE_ACC_R][MISS] = 0
	L2_cache_stats_breakdown[TEXTURE_ACC_R][RESERVATION_FAIL] = 0
	L2_cache_stats_breakdown[TEXTURE_ACC_R][SECTOR_MISS] = 0
	L2_cache_stats_breakdown[GLOBAL_ACC_W][HIT] = 326
	L2_cache_stats_breakdown[GLOBAL_ACC_W][HIT_RESERVED] = 0
	L2_cache_stats_breakdown[GLOBAL_ACC_W][MISS] = 1565
	L2_cache_stats_breakdown[GLOBAL_ACC_W][RESERVATION_FAIL] = 0
	L2_cache_stats_breakdown[GLOBAL_ACC_W][SECTOR_MISS] = 6857
	L2_cache_stats_breakdown[LOCAL_ACC_W][HIT] = 0
	L2_cache_stats_breakdown[LOCAL_ACC_W][HIT_RESERVED] = 0
	L2_cache_stats_breakdown[LOCAL_ACC_W][MISS] = 0
	L2_cache_stats_breakdown[LOCAL_ACC_W][RESERVATION_FAIL] = 0
	L2_cache_stats_breakdown[LOCAL_ACC_W][SECTOR_MISS] = 0
	L2_cache_stats_breakdown[L1_WRBK_ACC][HIT] = 0
	L2_cache_stats_breakdown[L1_WRBK_ACC][HIT_RESERVED] = 0
	L2_cache_stats_breakdown[L1_WRBK_ACC][MISS] = 0
	L2_cache_stats_breakdown[L1_WRBK_ACC][RESERVATION_FAIL] = 0
	L2_cache_stats_breakdown[L1_WRBK_ACC][SECTOR_MISS] = 0
	L2_cache_stats_breakdown[L2_WRBK_ACC][HIT] = 0
	L2_cache_stats_breakdown[L2_WRBK_ACC][HIT_RESERVED] = 0
	L2_cache_stats_breakdown[L2_WRBK_ACC][MISS] = 0
	L2_cache_stats_breakdown[L2_WRBK_ACC][RESERVATION_FAIL] = 0
	L2_cache_stats_breakdown[L2_WRBK_ACC][SECTOR_MISS] = 0
	L2_cache_stats_breakdown[INST_ACC_R][HIT] = 352
	L2_cache_stats_breakdown[INST_ACC_R][HIT_RESERVED] = 96
	L2_cache_stats_breakdown[INST_ACC_R][MISS] = 8
	L2_cache_stats_breakdown[INST_ACC_R][RESERVATION_FAIL] = 753
	L2_cache_stats_breakdown[INST_ACC_R][SECTOR_MISS] = 24
	L2_cache_stats_breakdown[L1_WR_ALLOC_R][HIT] = 0
	L2_cache_stats_breakdown[L1_WR_ALLOC_R][HIT_RESERVED] = 0
	L2_cache_stats_breakdown[L1_WR_ALLOC_R][MISS] = 0
	L2_cache_stats_breakdown[L1_WR_ALLOC_R][RESERVATION_FAIL] = 0
	L2_cache_stats_breakdown[L1_WR_ALLOC_R][SECTOR_MISS] = 0
	L2_cache_stats_breakdown[L2_WR_ALLOC_R][HIT] = 0
	L2_cache_stats_breakdown[L2_WR_ALLOC_R][HIT_RESERVED] = 0
	L2_cache_stats_breakdown[L2_WR_ALLOC_R][MISS] = 0
	L2_cache_stats_breakdown[L2_WR_ALLOC_R][RESERVATION_FAIL] = 0
	L2_cache_stats_breakdown[L2_WR_ALLOC_R][SECTOR_MISS] = 0
	L2_cache_stats_breakdown[GLOBAL_ACC_R][TOTAL_ACCESS] = 160676
	L2_cache_stats_breakdown[CONST_ACC_R][TOTAL_ACCESS] = 30
	L2_cache_stats_breakdown[GLOBAL_ACC_W][TOTAL_ACCESS] = 8748
	L2_cache_stats_breakdown[INST_ACC_R][TOTAL_ACCESS] = 480
L2_total_cache_reservation_fail_breakdown:
	L2_cache_stats_fail_breakdown[GLOBAL_ACC_R][MISS_QUEUE_FULL] = 17
	L2_cache_stats_fail_breakdown[CONST_ACC_R][MSHR_MERGE_ENRTY_FAIL] = 115
	L2_cache_stats_fail_breakdown[INST_ACC_R][MSHR_MERGE_ENRTY_FAIL] = 753
L2_cache_data_port_util = 0.010
L2_cache_fill_port_util = 0.078

icnt_total_pkts_mem_to_simt=169934
icnt_total_pkts_simt_to_mem=49052
LD_mem_lat_dist  0 0 0 0 0 0 0 0 0 0 0 0 0 0 0 0 0 0 0 0 0 0 0 0 0 0 0
ST_mem_lat_dist  0 0 0 0 0 0 0 0 0 0 0 0 0 0 0 0 0 0 0 0 0 0 0 0 0 0 0
----------------------------Interconnect-DETAILS--------------------------------
Class 0:
Packet latency average = 6.24895
	minimum = 5
	maximum = 68
Network latency average = 6.16765
	minimum = 5
	maximum = 68
Slowest packet = 207432
Flit latency average = 6.12898
	minimum = 5
	maximum = 68
Slowest flit = 212081
Fragmentation average = 0
	minimum = 0
	maximum = 0
Injected packet rate average = 0.0596837
	minimum = 0.0213415 (at node 10)
	maximum = 0.107539 (at node 23)
Accepted packet rate average = 0.0596837
	minimum = 0.0272806 (at node 24)
	maximum = 0.105717 (at node 8)
Injected flit rate average = 0.0612352
	minimum = 0.0237963 (at node 11)
	maximum = 0.107539 (at node 23)
Accepted flit rate average= 0.0612352
	minimum = 0.0306066 (at node 15)
	maximum = 0.105717 (at node 8)
Injected packet length average = 1.026
Accepted packet length average = 1.026
Total in-flight flits = 0 (0 measured)
====== Overall Traffic Statistics ======
====== Traffic class 0 ======
Packet latency average = 6.21532 (5 samples)
	minimum = 5 (5 samples)
	maximum = 57.2 (5 samples)
Network latency average = 6.13516 (5 samples)
	minimum = 5 (5 samples)
	maximum = 57.2 (5 samples)
Flit latency average = 6.0981 (5 samples)
	minimum = 5 (5 samples)
	maximum = 57.2 (5 samples)
Fragmentation average = 0 (5 samples)
	minimum = 0 (5 samples)
	maximum = 0 (5 samples)
Injected packet rate average = 0.0588281 (5 samples)
	minimum = 0.0210309 (5 samples)
	maximum = 0.1065 (5 samples)
Accepted packet rate average = 0.0588281 (5 samples)
	minimum = 0.0268634 (5 samples)
	maximum = 0.106694 (5 samples)
Injected flit rate average = 0.0603167 (5 samples)
	minimum = 0.0234554 (5 samples)
	maximum = 0.1065 (5 samples)
Accepted flit rate average = 0.0603167 (5 samples)
	minimum = 0.030092 (5 samples)
	maximum = 0.106694 (5 samples)
Injected packet size average = 1.0253 (5 samples)
Accepted packet size average = 1.0253 (5 samples)
Hops average = 1 (5 samples)
----------------------------END-of-Interconnect-DETAILS-------------------------


gpgpu_simulation_time = 0 days, 0 hrs, 1 min, 39 sec (99 sec)
gpgpu_simulation_rate = 635491 (inst/sec)
gpgpu_simulation_rate = 1358 (cycle/sec)
gpgpu_silicon_slowdown = 515463x
GPGPU-Sim: synchronize waiting for inactive GPU simulation
GPGPU-Sim API: Stream Manager State
GPGPU-Sim: detected inactive GPU simulation thread
GPGPU-Sim: *** exit detected ***
