

        *** GPGPU-Sim Simulator Version 4.0.0  [build gpgpu-sim_git-commit-90ec3399763d7c8512cfe7dc193473086c38ca38_modified_0.0] ***


GPGPU-Sim PTX: simulation mode 0 (can change with PTX_SIM_MODE_FUNC environment variable:
               1=functional simulation only, 0=detailed performance simulator)
GPGPU-Sim PTX: overriding embedded ptx with ptx file (PTX_SIM_USE_PTX_FILE is set)
GPGPU-Sim: Configuration options:

-save_embedded_ptx                      0 # saves ptx files embedded in binary as <n>.ptx
-keep                                   0 # keep intermediate files created by GPGPU-Sim when interfacing with external programs
-gpgpu_ptx_save_converted_ptxplus                    0 # Saved converted ptxplus to a file
-gpgpu_occupancy_sm_number                   20 # The SM number to pass to ptxas when getting register usage for computing GPU occupancy. This parameter is required in the config.
-ptx_opcode_latency_int      4,13,4,5,145,32 # Opcode latencies for integers <ADD,MAX,MUL,MAD,DIV,SHFL>Default 1,1,19,25,145,32
-ptx_opcode_latency_fp          4,13,4,5,39 # Opcode latencies for single precision floating points <ADD,MAX,MUL,MAD,DIV>Default 1,1,1,1,30
-ptx_opcode_latency_dp         8,19,8,8,330 # Opcode latencies for double precision floating points <ADD,MAX,MUL,MAD,DIV>Default 8,8,8,8,335
-ptx_opcode_latency_sfu                    8 # Opcode latencies for SFU instructionsDefault 8
-ptx_opcode_latency_tesnor                   64 # Opcode latencies for Tensor instructionsDefault 64
-ptx_opcode_initiation_int          1,2,2,1,8,4 # Opcode initiation intervals for integers <ADD,MAX,MUL,MAD,DIV,SHFL>Default 1,1,4,4,32,4
-ptx_opcode_initiation_fp            1,2,1,1,4 # Opcode initiation intervals for single precision floating points <ADD,MAX,MUL,MAD,DIV>Default 1,1,1,1,5
-ptx_opcode_initiation_dp         8,16,8,8,130 # Opcode initiation intervals for double precision floating points <ADD,MAX,MUL,MAD,DIV>Default 8,8,8,8,130
-ptx_opcode_initiation_sfu                    8 # Opcode initiation intervals for sfu instructionsDefault 8
-ptx_opcode_initiation_tensor                   64 # Opcode initiation intervals for tensor instructionsDefault 64
-cdp_latency         7200,8000,100,12000,1600 # CDP API latency <cudaStreamCreateWithFlags, cudaGetParameterBufferV2_init_perWarp, cudaGetParameterBufferV2_perKernel, cudaLaunchDeviceV2_init_perWarp, cudaLaunchDevicV2_perKernel>Default 7200,8000,100,12000,1600
-network_mode                           1 # Interconnection network mode
-inter_config_file   config_fermi_islip.icnt # Interconnection network config file
-icnt_in_buffer_limit                   64 # in_buffer_limit
-icnt_out_buffer_limit                   64 # out_buffer_limit
-icnt_subnets                           2 # subnets
-icnt_arbiter_algo                      1 # arbiter_algo
-icnt_verbose                           0 # inct_verbose
-icnt_grant_cycles                      1 # grant_cycles
-gpgpu_ptx_use_cuobjdump                    1 # Use cuobjdump to extract ptx and sass from binaries
-gpgpu_experimental_lib_support                    0 # Try to extract code from cuda libraries [Broken because of unknown cudaGetExportTable]
-checkpoint_option                      0 #  checkpointing flag (0 = no checkpoint)
-checkpoint_kernel                      1 #  checkpointing during execution of which kernel (1- 1st kernel)
-checkpoint_CTA                         0 #  checkpointing after # of CTA (< less than total CTA)
-resume_option                          0 #  resume flag (0 = no resume)
-resume_kernel                          0 #  Resume from which kernel (1= 1st kernel)
-resume_CTA                             0 #  resume from which CTA 
-checkpoint_CTA_t                       0 #  resume from which CTA 
-checkpoint_insn_Y                      0 #  resume from which CTA 
-gpgpu_ptx_convert_to_ptxplus                    0 # Convert SASS (native ISA) to ptxplus and run ptxplus
-gpgpu_ptx_force_max_capability                   20 # Force maximum compute capability
-gpgpu_ptx_inst_debug_to_file                    0 # Dump executed instructions' debug information to file
-gpgpu_ptx_inst_debug_file       inst_debug.txt # Executed instructions' debug output file
-gpgpu_ptx_inst_debug_thread_uid                    1 # Thread UID for executed instructions' debug output
-gpgpu_simd_model                       1 # 1 = post-dominator
-gpgpu_shader_core_pipeline              1536:32 # shader core pipeline config, i.e., {<nthread>:<warpsize>}
-gpgpu_tex_cache:l1  N:4:128:24,L:R:m:N:L,T:128:4,128:2 # per-shader L1 texture cache  (READ-ONLY) config  {<nsets>:<bsize>:<assoc>,<rep>:<wr>:<alloc>:<wr_alloc>,<mshr>:<N>:<merge>,<mq>:<rf>}
-gpgpu_const_cache:l1 N:64:64:2,L:R:f:N:L,S:2:32,4 # per-shader L1 constant memory cache  (READ-ONLY) config  {<nsets>:<bsize>:<assoc>,<rep>:<wr>:<alloc>:<wr_alloc>,<mshr>:<N>:<merge>,<mq>} 
-gpgpu_cache:il1     N:4:128:4,L:R:f:N:L,S:2:32,4 # shader L1 instruction cache config  {<nsets>:<bsize>:<assoc>,<rep>:<wr>:<alloc>:<wr_alloc>,<mshr>:<N>:<merge>,<mq>} 
-gpgpu_cache:dl1     N:32:128:4,L:L:m:N:H,S:64:8,8 # per-shader L1 data cache config  {<nsets>:<bsize>:<assoc>,<rep>:<wr>:<alloc>:<wr_alloc>,<mshr>:<N>:<merge>,<mq> | none}
-gpgpu_l1_banks                         1 # The number of L1 cache banks
-gpgpu_l1_banks_byte_interleaving                   32 # l1 banks byte interleaving granularity
-gpgpu_l1_banks_hashing_function                    0 # l1 banks hashing function
-gpgpu_l1_latency                      35 # L1 Hit Latency
-gpgpu_smem_latency                    26 # smem Latency
-gpgpu_cache:dl1PrefL1                 none # per-shader L1 data cache config  {<nsets>:<bsize>:<assoc>,<rep>:<wr>:<alloc>:<wr_alloc>,<mshr>:<N>:<merge>,<mq> | none}
-gpgpu_cache:dl1PrefShared                 none # per-shader L1 data cache config  {<nsets>:<bsize>:<assoc>,<rep>:<wr>:<alloc>:<wr_alloc>,<mshr>:<N>:<merge>,<mq> | none}
-gpgpu_gmem_skip_L1D                    0 # global memory access skip L1D cache (implements -Xptxas -dlcm=cg, default=no skip)
-gpgpu_perfect_mem                      0 # enable perfect memory mode (no cache miss)
-n_regfile_gating_group                    4 # group of lanes that should be read/written together)
-gpgpu_clock_gated_reg_file                    0 # enable clock gated reg file for power calculations
-gpgpu_clock_gated_lanes                    0 # enable clock gated lanes for power calculations
-gpgpu_shader_registers                32768 # Number of registers per shader core. Limits number of concurrent CTAs. (default 8192)
-gpgpu_registers_per_block                 8192 # Maximum number of registers per CTA. (default 8192)
-gpgpu_ignore_resources_limitation                    0 # gpgpu_ignore_resources_limitation (default 0)
-gpgpu_shader_cta                       8 # Maximum number of concurrent CTAs in shader (default 8)
-gpgpu_num_cta_barriers                   16 # Maximum number of named barriers per CTA (default 16)
-gpgpu_n_clusters                      15 # number of processing clusters
-gpgpu_n_cores_per_cluster                    1 # number of simd cores per cluster
-gpgpu_n_cluster_ejection_buffer_size                   32 # number of packets in ejection buffer
-gpgpu_n_ldst_response_buffer_size                    2 # number of response packets in ld/st unit ejection buffer
-gpgpu_shmem_per_block                49152 # Size of shared memory per thread block or CTA (default 48kB)
-gpgpu_shmem_size                   49152 # Size of shared memory per shader core (default 16kB)
-gpgpu_adaptive_cache_config                    0 # adaptive_cache_config
-gpgpu_shmem_sizeDefault                49152 # Size of shared memory per shader core (default 16kB)
-gpgpu_shmem_size_PrefL1                16384 # Size of shared memory per shader core (default 16kB)
-gpgpu_shmem_size_PrefShared                16384 # Size of shared memory per shader core (default 16kB)
-gpgpu_shmem_num_banks                   32 # Number of banks in the shared memory in each shader core (default 16)
-gpgpu_shmem_limited_broadcast                    0 # Limit shared memory to do one broadcast per cycle (default on)
-gpgpu_shmem_warp_parts                    1 # Number of portions a warp is divided into for shared memory bank conflict check 
-gpgpu_mem_unit_ports                    1 # The number of memory transactions allowed per core cycle
-gpgpu_shmem_warp_parts                    1 # Number of portions a warp is divided into for shared memory bank conflict check 
-gpgpu_warpdistro_shader                   -1 # Specify which shader core to collect the warp size distribution from
-gpgpu_warp_issue_shader                    0 # Specify which shader core to collect the warp issue distribution from
-gpgpu_local_mem_map                    1 # Mapping from local memory space address to simulated GPU physical address space (default = enabled)
-gpgpu_num_reg_banks                   16 # Number of register banks (default = 8)
-gpgpu_reg_bank_use_warp_id                    0 # Use warp ID in mapping registers to banks (default = off)
-gpgpu_sub_core_model                    0 # Sub Core Volta/Pascal model (default = off)
-gpgpu_enable_specialized_operand_collector                    1 # enable_specialized_operand_collector
-gpgpu_operand_collector_num_units_sp                    6 # number of collector units (default = 4)
-gpgpu_operand_collector_num_units_dp                    0 # number of collector units (default = 0)
-gpgpu_operand_collector_num_units_sfu                    8 # number of collector units (default = 4)
-gpgpu_operand_collector_num_units_int                    0 # number of collector units (default = 0)
-gpgpu_operand_collector_num_units_tensor_core                    4 # number of collector units (default = 4)
-gpgpu_operand_collector_num_units_mem                    2 # number of collector units (default = 2)
-gpgpu_operand_collector_num_units_gen                    0 # number of collector units (default = 0)
-gpgpu_operand_collector_num_in_ports_sp                    2 # number of collector unit in ports (default = 1)
-gpgpu_operand_collector_num_in_ports_dp                    0 # number of collector unit in ports (default = 0)
-gpgpu_operand_collector_num_in_ports_sfu                    1 # number of collector unit in ports (default = 1)
-gpgpu_operand_collector_num_in_ports_int                    0 # number of collector unit in ports (default = 0)
-gpgpu_operand_collector_num_in_ports_tensor_core                    1 # number of collector unit in ports (default = 1)
-gpgpu_operand_collector_num_in_ports_mem                    1 # number of collector unit in ports (default = 1)
-gpgpu_operand_collector_num_in_ports_gen                    0 # number of collector unit in ports (default = 0)
-gpgpu_operand_collector_num_out_ports_sp                    2 # number of collector unit in ports (default = 1)
-gpgpu_operand_collector_num_out_ports_dp                    0 # number of collector unit in ports (default = 0)
-gpgpu_operand_collector_num_out_ports_sfu                    1 # number of collector unit in ports (default = 1)
-gpgpu_operand_collector_num_out_ports_int                    0 # number of collector unit in ports (default = 0)
-gpgpu_operand_collector_num_out_ports_tensor_core                    1 # number of collector unit in ports (default = 1)
-gpgpu_operand_collector_num_out_ports_mem                    1 # number of collector unit in ports (default = 1)
-gpgpu_operand_collector_num_out_ports_gen                    0 # number of collector unit in ports (default = 0)
-gpgpu_coalesce_arch                   20 # Coalescing arch (GT200 = 13, Fermi = 20)
-gpgpu_num_sched_per_core                    2 # Number of warp schedulers per core
-gpgpu_max_insn_issue_per_warp                    1 # Max number of instructions that can be issued per warp in one cycle by scheduler (either 1 or 2)
-gpgpu_dual_issue_diff_exec_units                    1 # should dual issue use two different execution unit resources (Default = 1)
-gpgpu_simt_core_sim_order                    1 # Select the simulation order of cores in a cluster (0=Fix, 1=Round-Robin)
-gpgpu_pipeline_widths 2,0,0,1,1,2,0,0,1,1,2 # Pipeline widths ID_OC_SP,ID_OC_DP,ID_OC_INT,ID_OC_SFU,ID_OC_MEM,OC_EX_SP,OC_EX_DP,OC_EX_INT,OC_EX_SFU,OC_EX_MEM,EX_WB,ID_OC_TENSOR_CORE,OC_EX_TENSOR_CORE
-gpgpu_tensor_core_avail                    0 # Tensor Core Available (default=0)
-gpgpu_num_sp_units                     2 # Number of SP units (default=1)
-gpgpu_num_dp_units                     0 # Number of DP units (default=0)
-gpgpu_num_int_units                    0 # Number of INT units (default=0)
-gpgpu_num_sfu_units                    1 # Number of SF units (default=1)
-gpgpu_num_tensor_core_units                    0 # Number of tensor_core units (default=1)
-gpgpu_num_mem_units                    1 # Number if ldst units (default=1) WARNING: not hooked up to anything
-gpgpu_scheduler     two_level_active:6:0:1 # Scheduler configuration: < lrr | gto | two_level_active > If two_level_active:<num_active_warps>:<inner_prioritization>:<outer_prioritization>For complete list of prioritization values see shader.h enum scheduler_prioritization_typeDefault: gto
-gpgpu_concurrent_kernel_sm                    0 # Support concurrent kernels on a SM (default = disabled)
-gpgpu_perfect_inst_const_cache                    0 # perfect inst and const cache mode, so all inst and const hits in the cache(default = disabled)
-gpgpu_inst_fetch_throughput                    1 # the number of fetched intruction per warp each cycle
-gpgpu_reg_file_port_throughput                    1 # the number ports of the register file
-specialized_unit_1         0,4,4,4,4,BRA # specialized unit config {<enabled>,<num_units>:<latency>:<initiation>,<ID_OC_SPEC>:<OC_EX_SPEC>,<NAME>}
-specialized_unit_2         0,4,4,4,4,BRA # specialized unit config {<enabled>,<num_units>:<latency>:<initiation>,<ID_OC_SPEC>:<OC_EX_SPEC>,<NAME>}
-specialized_unit_3         0,4,4,4,4,BRA # specialized unit config {<enabled>,<num_units>:<latency>:<initiation>,<ID_OC_SPEC>:<OC_EX_SPEC>,<NAME>}
-specialized_unit_4         0,4,4,4,4,BRA # specialized unit config {<enabled>,<num_units>:<latency>:<initiation>,<ID_OC_SPEC>:<OC_EX_SPEC>,<NAME>}
-specialized_unit_5         0,4,4,4,4,BRA # specialized unit config {<enabled>,<num_units>:<latency>:<initiation>,<ID_OC_SPEC>:<OC_EX_SPEC>,<NAME>}
-specialized_unit_6         0,4,4,4,4,BRA # specialized unit config {<enabled>,<num_units>:<latency>:<initiation>,<ID_OC_SPEC>:<OC_EX_SPEC>,<NAME>}
-specialized_unit_7         0,4,4,4,4,BRA # specialized unit config {<enabled>,<num_units>:<latency>:<initiation>,<ID_OC_SPEC>:<OC_EX_SPEC>,<NAME>}
-specialized_unit_8         0,4,4,4,4,BRA # specialized unit config {<enabled>,<num_units>:<latency>:<initiation>,<ID_OC_SPEC>:<OC_EX_SPEC>,<NAME>}
-gpgpu_perf_sim_memcpy                    1 # Fill the L2 cache on memcpy
-gpgpu_simple_dram_model                    0 # simple_dram_model with fixed latency and BW
-gpgpu_dram_scheduler                    1 # 0 = fifo, 1 = FR-FCFS (defaul)
-gpgpu_dram_partition_queues          64:64:64:64 # i2$:$2d:d2$:$2i
-l2_ideal                               0 # Use a ideal L2 cache that always hit
-gpgpu_cache:dl2     S:64:128:8,L:B:m:L:L,A:256:4,4:0,32 # unified banked L2 data cache config  {<nsets>:<bsize>:<assoc>,<rep>:<wr>:<alloc>:<wr_alloc>,<mshr>:<N>:<merge>,<mq>}
-gpgpu_cache:dl2_texture_only                    0 # L2 cache used for texture only
-gpgpu_n_mem                            6 # number of memory modules (e.g. memory controllers) in gpu
-gpgpu_n_sub_partition_per_mchannel                    2 # number of memory subpartition in each memory module
-gpgpu_n_mem_per_ctrlr                    2 # number of memory chips per memory controller
-gpgpu_memlatency_stat                   14 # track and display latency statistics 0x2 enables MC, 0x4 enables queue logs
-gpgpu_frfcfs_dram_sched_queue_size                   64 # 0 = unlimited (default); # entries per chip
-gpgpu_dram_return_queue_size                  116 # 0 = unlimited (default); # entries per chip
-gpgpu_dram_buswidth                    4 # default = 4 bytes (8 bytes per cycle at DDR)
-gpgpu_dram_burst_length                    8 # Burst length of each DRAM request (default = 4 data bus cycle)
-dram_data_command_freq_ratio                    4 # Frequency ratio between DRAM data bus and command bus (default = 2 times, i.e. DDR)
-gpgpu_dram_timing_opt nbk=16:CCD=2:RRD=6:RCD=12:RAS=28:RP=12:RC=40: CL=12:WL=4:CDLR=5:WR=12:nbkgrp=4:CCDL=3:RTPL=2 # DRAM timing parameters = {nbk:tCCD:tRRD:tRCD:tRAS:tRP:tRC:CL:WL:tCDLR:tWR:nbkgrp:tCCDL:tRTPL}
-gpgpu_l2_rop_latency                  120 # ROP queue latency (default 85)
-dram_latency                         100 # DRAM latency (default 30)
-dram_dual_bus_interface                    0 # dual_bus_interface (default = 0) 
-dram_bnk_indexing_policy                    0 # dram_bnk_indexing_policy (0 = normal indexing, 1 = Xoring with the higher bits) (Default = 0)
-dram_bnkgrp_indexing_policy                    1 # dram_bnkgrp_indexing_policy (0 = take higher bits, 1 = take lower bits) (Default = 0)
-dram_seperate_write_queue_enable                    0 # Seperate_Write_Queue_Enable
-dram_write_queue_size             32:28:16 # Write_Queue_Size
-dram_elimnate_rw_turnaround                    0 # elimnate_rw_turnaround i.e set tWTR and tRTW = 0
-icnt_flit_size                        40 # icnt_flit_size
-gpgpu_mem_addr_mapping dramid@8;00000000.00000000.00000000.00000000.0000RRRR.RRRRRRRR.BBBCCCCB.CCSSSSSS # mapping memory address to dram model {dramid@<start bit>;<memory address map>}
-gpgpu_mem_addr_test                    0 # run sweep test to check address mapping for aliased address
-gpgpu_mem_address_mask                    1 # 0 = old addressing mask, 1 = new addressing mask, 2 = new add. mask + flipped bank sel and chip sel bits
-gpgpu_memory_partition_indexing                    0 # 0 = no indexing, 1 = bitwise xoring, 2 = IPoly, 3 = custom indexing
-gpuwattch_xml_file  gpuwattch_gtx480.xml # GPUWattch XML file
-power_simulation_enabled                    1 # Turn on power simulator (1=On, 0=Off)
-power_per_cycle_dump                    0 # Dump detailed power output each cycle
-power_trace_enabled                    0 # produce a file for the power trace (1=On, 0=Off)
-power_trace_zlevel                     6 # Compression level of the power trace output log (0=no comp, 9=highest)
-steady_power_levels_enabled                    0 # produce a file for the steady power levels (1=On, 0=Off)
-steady_state_definition                  8:4 # allowed deviation:number of samples
-gpgpu_max_cycle                        0 # terminates gpu simulation early (0 = no limit)
-gpgpu_max_insn                         0 # terminates gpu simulation early (0 = no limit)
-gpgpu_max_cta                          0 # terminates gpu simulation early (0 = no limit)
-gpgpu_max_completed_cta                    0 # terminates gpu simulation early (0 = no limit)
-gpgpu_runtime_stat                   500 # display runtime statistics such as dram utilization {<freq>:<flag>}
-liveness_message_freq                    1 # Minimum number of seconds between simulation liveness messages (0 = always print)
-gpgpu_compute_capability_major                    2 # Major compute capability version number
-gpgpu_compute_capability_minor                    0 # Minor compute capability version number
-gpgpu_flush_l1_cache                    1 # Flush L1 cache at the end of each kernel call
-gpgpu_flush_l2_cache                    0 # Flush L2 cache at the end of each kernel call
-gpgpu_deadlock_detect                    1 # Stop the simulation at deadlock (1=on (default), 0=off)
-gpgpu_ptx_instruction_classification                    0 # if enabled will classify ptx instruction types per kernel (Max 255 kernels now)
-gpgpu_ptx_sim_mode                     0 # Select between Performance (default) or Functional simulation (1)
-gpgpu_clock_domains 700.0:700.0:700.0:924.0 # Clock Domain Frequencies in MhZ {<Core Clock>:<ICNT Clock>:<L2 Clock>:<DRAM Clock>}
-gpgpu_max_concurrent_kernel                    8 # maximum kernels that can run concurrently on GPU
-gpgpu_cflog_interval                    0 # Interval between each snapshot in control flow logger
-visualizer_enabled                     0 # Turn on visualizer output (1=On, 0=Off)
-visualizer_outputfile                 NULL # Specifies the output log file for visualizer
-visualizer_zlevel                      6 # Compression level of the visualizer output log (0=no comp, 9=highest)
-gpgpu_stack_size_limit                 1024 # GPU thread stack size
-gpgpu_heap_size_limit              8388608 # GPU malloc heap size 
-gpgpu_runtime_sync_depth_limit                    2 # GPU device runtime synchronize depth
-gpgpu_runtime_pending_launch_count_limit                 2048 # GPU device runtime pending launch count
-trace_enabled                          0 # Turn on traces
-trace_components                    none # comma seperated list of traces to enable. Complete list found in trace_streams.tup. Default none
-trace_sampling_core                    0 # The core which is printed using CORE_DPRINTF. Default 0
-trace_sampling_memory_partition                   -1 # The memory partition which is printed using MEMPART_DPRINTF. Default -1 (i.e. all)
-enable_ptx_file_line_stats                    1 # Turn on PTX source line statistic profiling. (1 = On)
-ptx_line_stats_filename gpgpu_inst_stats.txt # Output file for PTX source line statistics.
-gpgpu_kernel_launch_latency                    0 # Kernel launch latency in cycles. Default: 0
-gpgpu_cdp_enabled                      0 # Turn on CDP
-gpgpu_TB_launch_latency                    0 # thread block launch latency in cycles. Default: 0
DRAM Timing Options:
nbk                                    16 # number of banks
CCD                                     2 # column to column delay
RRD                                     6 # minimal delay between activation of rows in different banks
RCD                                    12 # row to column delay
RAS                                    28 # time needed to activate row
RP                                     12 # time needed to precharge (deactivate) row
RC                                     40 # row cycle time
CDLR                                    5 # switching from write to read (changes tWTR)
WR                                     12 # last data-in to row precharge
CL                                     12 # CAS latency
WL                                      4 # Write latency
nbkgrp                                  4 # number of bank groups
CCDL                                    3 # column to column delay between accesses to different bank groups
RTPL                                    2 # read to precharge delay between accesses to different bank groups
Total number of memory sub partition = 12
addr_dec_mask[CHIP]  = 0000000000000000 	high:64 low:0
addr_dec_mask[BK]    = 000000000000e100 	high:16 low:8
addr_dec_mask[ROW]   = 000000000fff0000 	high:28 low:16
addr_dec_mask[COL]   = 0000000000001eff 	high:13 low:0
addr_dec_mask[BURST] = 000000000000003f 	high:6 low:0
sub_partition_id_mask = 0000000000000100
GPGPU-Sim uArch: clock freqs: 700000000.000000:700000000.000000:700000000.000000:924000000.000000
GPGPU-Sim uArch: clock periods: 0.00000000142857142857:0.00000000142857142857:0.00000000142857142857:0.00000000108225108225
*** Initializing Memory Statistics ***
GPGPU-Sim uArch: interconnect node map (shaderID+MemID to icntID)
GPGPU-Sim uArch: Memory nodes ID start from index: 15
GPGPU-Sim uArch:    0   1   2   3   4
GPGPU-Sim uArch:    5   6   7   8   9
GPGPU-Sim uArch:   10  11  12  13  14
GPGPU-Sim uArch:   15  16  17  18  19
GPGPU-Sim uArch:   20  21  22  23  24
GPGPU-Sim uArch:   25  26
GPGPU-Sim uArch: interconnect node reverse map (icntID to shaderID+MemID)
GPGPU-Sim uArch: Memory nodes start from ID: 15
GPGPU-Sim uArch:    0   1   2   3   4
GPGPU-Sim uArch:    5   6   7   8   9
GPGPU-Sim uArch:   10  11  12  13  14
GPGPU-Sim uArch:   15  16  17  18  19
GPGPU-Sim uArch:   20  21  22  23  24
GPGPU-Sim uArch:   25  26
7f8b3ffae7eb839d529c9d25de33b44f  /home/joshua/gpgpu_A4/gpu-rodinia/cuda/nw/a.out
Extracting PTX file and ptxas options    1: a.1.sm_52.ptx -arch=sm_52
GPGPU-Sim uArch: performance model initialization complete.
self exe links to: /home/joshua/gpgpu_A4/gpu-rodinia/cuda/nw/a.out
self exe links to: /home/joshua/gpgpu_A4/gpu-rodinia/cuda/nw/a.out
11.0
GPGPU-Sim PTX: __cudaRegisterFatBinary, fat_cubin_handle = 1, filename=default
self exe links to: /home/joshua/gpgpu_A4/gpu-rodinia/cuda/nw/a.out
Running md5sum using "md5sum /home/joshua/gpgpu_A4/gpu-rodinia/cuda/nw/a.out "
self exe links to: /home/joshua/gpgpu_A4/gpu-rodinia/cuda/nw/a.out
Extracting specific PTX file named a.1.sm_52.ptx 
GPGPU-Sim PTX: __cudaRegisterFunction _Z20needle_cuda_shared_2PiS_iiii : hostFun 0x0x55adce67ce28, fat_cubin_handle = 1
GPGPU-Sim PTX: Parsing a.1.sm_52.ptx
GPGPU-Sim PTX: allocating shared region for "_ZZ20needle_cuda_shared_1PiS_iiiiE4temp" from 0x0 to 0x484 (shared memory space)
GPGPU-Sim PTX: allocating shared region for "_ZZ20needle_cuda_shared_1PiS_iiiiE3ref" from 0x500 to 0x900 (shared memory space)
GPGPU-Sim PTX: instruction assembly for function '_Z20needle_cuda_shared_1PiS_iiii'...   done.
GPGPU-Sim PTX: allocating shared region for "_ZZ20needle_cuda_shared_2PiS_iiiiE4temp" from 0x0 to 0x484 (shared memory space)
GPGPU-Sim PTX: allocating shared region for "_ZZ20needle_cuda_shared_2PiS_iiiiE3ref" from 0x500 to 0x900 (shared memory space)
GPGPU-Sim PTX: instruction assembly for function '_Z20needle_cuda_shared_2PiS_iiii'...   done.
GPGPU-Sim PTX: finished parsing EMBEDDED .ptx file a.1.sm_52.ptx
GPGPU-Sim PTX: loading globals with explicit initializers... 
GPGPU-Sim PTX: finished loading globals (0 bytes total).
GPGPU-Sim PTX: loading constants with explicit initializers...  done.
GPGPU-Sim PTX: Loading PTXInfo from a.1.sm_52.ptx
GPGPU-Sim PTX: Kernel '_Z20needle_cuda_shared_2PiS_iiii' : regs=32, lmem=0, smem=2180, cmem=352
GPGPU-Sim PTX: Kernel '_Z20needle_cuda_shared_1PiS_iiii' : regs=32, lmem=0, smem=2180, cmem=352
GPGPU-Sim PTX: __cudaRegisterFunction _Z20needle_cuda_shared_1PiS_iiii : hostFun 0x0x55adce67cc32, fat_cubin_handle = 1
WG size of kernel = 16 
Start Needleman-Wunsch
Processing top-left matrix
GPGPU-Sim PTX: Setting up arguments for 8 bytes starting at 0x7ffdb4166358..
GPGPU-Sim PTX: Setting up arguments for 8 bytes starting at 0x7ffdb4166350..
GPGPU-Sim PTX: Setting up arguments for 4 bytes starting at 0x7ffdb416634c..
GPGPU-Sim PTX: Setting up arguments for 4 bytes starting at 0x7ffdb4166348..
GPGPU-Sim PTX: Setting up arguments for 4 bytes starting at 0x7ffdb4166344..
GPGPU-Sim PTX: Setting up arguments for 4 bytes starting at 0x7ffdb4166340..

GPGPU-Sim PTX: cudaLaunch for 0x0x55adce67cc32 (mode=performance simulation) on stream 0
GPGPU-Sim PTX: finding reconvergence points for '_Z20needle_cuda_shared_1PiS_iiii'...
GPGPU-Sim PTX: Finding dominators for '_Z20needle_cuda_shared_1PiS_iiii'...
GPGPU-Sim PTX: Finding immediate dominators for '_Z20needle_cuda_shared_1PiS_iiii'...
GPGPU-Sim PTX: Finding postdominators for '_Z20needle_cuda_shared_1PiS_iiii'...
GPGPU-Sim PTX: Finding immediate postdominators for '_Z20needle_cuda_shared_1PiS_iiii'...
GPGPU-Sim PTX: pre-decoding instructions for '_Z20needle_cuda_shared_1PiS_iiii'...
GPGPU-Sim PTX: reconvergence points for _Z20needle_cuda_shared_1PiS_iiii...
GPGPU-Sim PTX:  1 (potential) branch divergence @  PC=0x088 (a.1.sm_52.ptx:53) @%p16 bra BB0_2;
GPGPU-Sim PTX:    immediate post dominator      @  PC=0x0b0 (a.1.sm_52.ptx:61) cvta.to.global.u64 %rd6, %rd2;
GPGPU-Sim PTX:  2 (potential) branch divergence @  PC=0x350 (a.1.sm_52.ptx:145) @%p17 bra BB0_4;
GPGPU-Sim PTX:    immediate post dominator      @  PC=0x3a8 (a.1.sm_52.ptx:159) bar.sync 0;
GPGPU-Sim PTX:  3 (potential) branch divergence @  PC=0x3b8 (a.1.sm_52.ptx:161) @%p18 bra BB0_6;
GPGPU-Sim PTX:    immediate post dominator      @  PC=0x410 (a.1.sm_52.ptx:175) bar.sync 0;
GPGPU-Sim PTX:  4 (potential) branch divergence @  PC=0x420 (a.1.sm_52.ptx:177) @%p19 bra BB0_8;
GPGPU-Sim PTX:    immediate post dominator      @  PC=0x478 (a.1.sm_52.ptx:191) bar.sync 0;
GPGPU-Sim PTX:  5 (potential) branch divergence @  PC=0x488 (a.1.sm_52.ptx:193) @%p20 bra BB0_10;
GPGPU-Sim PTX:    immediate post dominator      @  PC=0x4e0 (a.1.sm_52.ptx:207) bar.sync 0;
GPGPU-Sim PTX:  6 (potential) branch divergence @  PC=0x4f0 (a.1.sm_52.ptx:209) @%p21 bra BB0_12;
GPGPU-Sim PTX:    immediate post dominator      @  PC=0x548 (a.1.sm_52.ptx:223) bar.sync 0;
GPGPU-Sim PTX:  7 (potential) branch divergence @  PC=0x558 (a.1.sm_52.ptx:225) @%p22 bra BB0_14;
GPGPU-Sim PTX:    immediate post dominator      @  PC=0x5b0 (a.1.sm_52.ptx:239) bar.sync 0;
GPGPU-Sim PTX:  8 (potential) branch divergence @  PC=0x5c0 (a.1.sm_52.ptx:241) @%p23 bra BB0_16;
GPGPU-Sim PTX:    immediate post dominator      @  PC=0x618 (a.1.sm_52.ptx:255) bar.sync 0;
GPGPU-Sim PTX:  9 (potential) branch divergence @  PC=0x628 (a.1.sm_52.ptx:257) @%p24 bra BB0_18;
GPGPU-Sim PTX:    immediate post dominator      @  PC=0x680 (a.1.sm_52.ptx:271) bar.sync 0;
GPGPU-Sim PTX: 10 (potential) branch divergence @  PC=0x690 (a.1.sm_52.ptx:273) @%p25 bra BB0_20;
GPGPU-Sim PTX:    immediate post dominator      @  PC=0x6e8 (a.1.sm_52.ptx:287) bar.sync 0;
GPGPU-Sim PTX: 11 (potential) branch divergence @  PC=0x6f8 (a.1.sm_52.ptx:289) @%p26 bra BB0_22;
GPGPU-Sim PTX:    immediate post dominator      @  PC=0x750 (a.1.sm_52.ptx:303) bar.sync 0;
GPGPU-Sim PTX: 12 (potential) branch divergence @  PC=0x760 (a.1.sm_52.ptx:305) @%p27 bra BB0_24;
GPGPU-Sim PTX:    immediate post dominator      @  PC=0x7b8 (a.1.sm_52.ptx:319) bar.sync 0;
GPGPU-Sim PTX: 13 (potential) branch divergence @  PC=0x7c8 (a.1.sm_52.ptx:321) @%p28 bra BB0_26;
GPGPU-Sim PTX:    immediate post dominator      @  PC=0x820 (a.1.sm_52.ptx:335) bar.sync 0;
GPGPU-Sim PTX: 14 (potential) branch divergence @  PC=0x830 (a.1.sm_52.ptx:337) @%p29 bra BB0_28;
GPGPU-Sim PTX:    immediate post dominator      @  PC=0x888 (a.1.sm_52.ptx:351) bar.sync 0;
GPGPU-Sim PTX: 15 (potential) branch divergence @  PC=0x898 (a.1.sm_52.ptx:353) @%p30 bra BB0_30;
GPGPU-Sim PTX:    immediate post dominator      @  PC=0x8f0 (a.1.sm_52.ptx:367) bar.sync 0;
GPGPU-Sim PTX: 16 (potential) branch divergence @  PC=0x900 (a.1.sm_52.ptx:369) @%p31 bra BB0_32;
GPGPU-Sim PTX:    immediate post dominator      @  PC=0x958 (a.1.sm_52.ptx:383) bar.sync 0;
GPGPU-Sim PTX: 17 (potential) branch divergence @  PC=0x968 (a.1.sm_52.ptx:385) @%p32 bra BB0_34;
GPGPU-Sim PTX:    immediate post dominator      @  PC=0x9c0 (a.1.sm_52.ptx:399) bar.sync 0;
GPGPU-Sim PTX: 18 (potential) branch divergence @  PC=0x9c8 (a.1.sm_52.ptx:400) @%p31 bra BB0_36;
GPGPU-Sim PTX:    immediate post dominator      @  PC=0xa20 (a.1.sm_52.ptx:414) bar.sync 0;
GPGPU-Sim PTX: 19 (potential) branch divergence @  PC=0xa28 (a.1.sm_52.ptx:415) @%p30 bra BB0_38;
GPGPU-Sim PTX:    immediate post dominator      @  PC=0xa80 (a.1.sm_52.ptx:429) bar.sync 0;
GPGPU-Sim PTX: 20 (potential) branch divergence @  PC=0xa88 (a.1.sm_52.ptx:430) @%p29 bra BB0_40;
GPGPU-Sim PTX:    immediate post dominator      @  PC=0xae0 (a.1.sm_52.ptx:444) bar.sync 0;
GPGPU-Sim PTX: 21 (potential) branch divergence @  PC=0xae8 (a.1.sm_52.ptx:445) @%p28 bra BB0_42;
GPGPU-Sim PTX:    immediate post dominator      @  PC=0xb40 (a.1.sm_52.ptx:459) bar.sync 0;
GPGPU-Sim PTX: 22 (potential) branch divergence @  PC=0xb48 (a.1.sm_52.ptx:460) @%p27 bra BB0_44;
GPGPU-Sim PTX:    immediate post dominator      @  PC=0xba0 (a.1.sm_52.ptx:474) bar.sync 0;
GPGPU-Sim PTX: 23 (potential) branch divergence @  PC=0xba8 (a.1.sm_52.ptx:475) @%p26 bra BB0_46;
GPGPU-Sim PTX:    immediate post dominator      @  PC=0xc00 (a.1.sm_52.ptx:489) bar.sync 0;
GPGPU-Sim PTX: 24 (potential) branch divergence @  PC=0xc08 (a.1.sm_52.ptx:490) @%p25 bra BB0_48;
GPGPU-Sim PTX:    immediate post dominator      @  PC=0xc60 (a.1.sm_52.ptx:504) bar.sync 0;
GPGPU-Sim PTX: 25 (potential) branch divergence @  PC=0xc68 (a.1.sm_52.ptx:505) @%p24 bra BB0_50;
GPGPU-Sim PTX:    immediate post dominator      @  PC=0xcc0 (a.1.sm_52.ptx:519) bar.sync 0;
GPGPU-Sim PTX: 26 (potential) branch divergence @  PC=0xcc8 (a.1.sm_52.ptx:520) @%p23 bra BB0_52;
GPGPU-Sim PTX:    immediate post dominator      @  PC=0xd20 (a.1.sm_52.ptx:534) bar.sync 0;
GPGPU-Sim PTX: 27 (potential) branch divergence @  PC=0xd28 (a.1.sm_52.ptx:535) @%p22 bra BB0_54;
GPGPU-Sim PTX:    immediate post dominator      @  PC=0xd80 (a.1.sm_52.ptx:549) bar.sync 0;
GPGPU-Sim PTX: 28 (potential) branch divergence @  PC=0xd88 (a.1.sm_52.ptx:550) @%p21 bra BB0_56;
GPGPU-Sim PTX:    immediate post dominator      @  PC=0xde0 (a.1.sm_52.ptx:564) bar.sync 0;
GPGPU-Sim PTX: 29 (potential) branch divergence @  PC=0xde8 (a.1.sm_52.ptx:565) @%p20 bra BB0_58;
GPGPU-Sim PTX:    immediate post dominator      @  PC=0xe40 (a.1.sm_52.ptx:579) bar.sync 0;
GPGPU-Sim PTX: 30 (potential) branch divergence @  PC=0xe48 (a.1.sm_52.ptx:580) @%p19 bra BB0_60;
GPGPU-Sim PTX:    immediate post dominator      @  PC=0xea0 (a.1.sm_52.ptx:594) bar.sync 0;
GPGPU-Sim PTX: 31 (potential) branch divergence @  PC=0xea8 (a.1.sm_52.ptx:595) @%p18 bra BB0_62;
GPGPU-Sim PTX:    immediate post dominator      @  PC=0xf00 (a.1.sm_52.ptx:609) bar.sync 0;
GPGPU-Sim PTX: 32 (potential) branch divergence @  PC=0xf08 (a.1.sm_52.ptx:610) @%p17 bra BB0_64;
GPGPU-Sim PTX:    immediate post dominator      @  PC=0xf60 (a.1.sm_52.ptx:624) bar.sync 0;
GPGPU-Sim PTX: ... end of reconvergence points for _Z20needle_cuda_shared_1PiS_iiii
GPGPU-Sim PTX: ... done pre-decoding instructions for '_Z20needle_cuda_shared_1PiS_iiii'.
GPGPU-Sim PTX: pushing kernel '_Z20needle_cuda_shared_1PiS_iiii' to stream 0, gridDim= (1,1,1) blockDim = (16,1,1) 
GPGPU-Sim uArch: Shader 0 bind to kernel 1 '_Z20needle_cuda_shared_1PiS_iiii'
GPGPU-Sim uArch: CTA/core = 8, limited by: cta_limit
Destroy streams for kernel 1: size 0
kernel_name = _Z20needle_cuda_shared_1PiS_iiii 
kernel_launch_uid = 1 
gpu_sim_cycle = 18239
gpu_sim_insn = 6067
gpu_ipc =       0.3326
gpu_tot_sim_cycle = 18239
gpu_tot_sim_insn = 6067
gpu_tot_ipc =       0.3326
gpu_tot_issued_cta = 1
gpu_occupancy = 2.0833% 
gpu_tot_occupancy = 2.0833% 
max_total_param_size = 0
gpu_stall_dramfull = 0
gpu_stall_icnt2sh    = 0
partiton_level_parallism =       0.0048
partiton_level_parallism_total  =       0.0048
partiton_level_parallism_util =       1.0000
partiton_level_parallism_util_total  =       1.0000
L2_BW  =       0.4163 GB/Sec
L2_BW_total  =       0.4163 GB/Sec
gpu_total_sim_rate=6067

========= Core cache stats =========
L1I_cache:
	L1I_total_cache_accesses = 275
	L1I_total_cache_misses = 35
	L1I_total_cache_miss_rate = 0.1273
	L1I_total_cache_pending_hits = 0
	L1I_total_cache_reservation_fails = 0
L1D_cache:
	L1D_cache_core[0]: Access = 52, Miss = 35, Miss_rate = 0.673, Pending_hits = 0, Reservation_fails = 0
	L1D_cache_core[1]: Access = 0, Miss = 0, Miss_rate = -nan, Pending_hits = 0, Reservation_fails = 0
	L1D_cache_core[2]: Access = 0, Miss = 0, Miss_rate = -nan, Pending_hits = 0, Reservation_fails = 0
	L1D_cache_core[3]: Access = 0, Miss = 0, Miss_rate = -nan, Pending_hits = 0, Reservation_fails = 0
	L1D_cache_core[4]: Access = 0, Miss = 0, Miss_rate = -nan, Pending_hits = 0, Reservation_fails = 0
	L1D_cache_core[5]: Access = 0, Miss = 0, Miss_rate = -nan, Pending_hits = 0, Reservation_fails = 0
	L1D_cache_core[6]: Access = 0, Miss = 0, Miss_rate = -nan, Pending_hits = 0, Reservation_fails = 0
	L1D_cache_core[7]: Access = 0, Miss = 0, Miss_rate = -nan, Pending_hits = 0, Reservation_fails = 0
	L1D_cache_core[8]: Access = 0, Miss = 0, Miss_rate = -nan, Pending_hits = 0, Reservation_fails = 0
	L1D_cache_core[9]: Access = 0, Miss = 0, Miss_rate = -nan, Pending_hits = 0, Reservation_fails = 0
	L1D_cache_core[10]: Access = 0, Miss = 0, Miss_rate = -nan, Pending_hits = 0, Reservation_fails = 0
	L1D_cache_core[11]: Access = 0, Miss = 0, Miss_rate = -nan, Pending_hits = 0, Reservation_fails = 0
	L1D_cache_core[12]: Access = 0, Miss = 0, Miss_rate = -nan, Pending_hits = 0, Reservation_fails = 0
	L1D_cache_core[13]: Access = 0, Miss = 0, Miss_rate = -nan, Pending_hits = 0, Reservation_fails = 0
	L1D_cache_core[14]: Access = 0, Miss = 0, Miss_rate = -nan, Pending_hits = 0, Reservation_fails = 0
	L1D_total_cache_accesses = 52
	L1D_total_cache_misses = 35
	L1D_total_cache_miss_rate = 0.6731
	L1D_total_cache_pending_hits = 0
	L1D_total_cache_reservation_fails = 0
	L1D_cache_data_port_util = 0.001
	L1D_cache_fill_port_util = 0.002
L1C_cache:
	L1C_total_cache_accesses = 7
	L1C_total_cache_misses = 5
	L1C_total_cache_miss_rate = 0.7143
	L1C_total_cache_pending_hits = 0
	L1C_total_cache_reservation_fails = 0
L1T_cache:
	L1T_total_cache_accesses = 0
	L1T_total_cache_misses = 0
	L1T_total_cache_pending_hits = 0
	L1T_total_cache_reservation_fails = 0

Total_core_cache_stats:
	Total_core_cache_stats_breakdown[GLOBAL_ACC_R][HIT] = 1
	Total_core_cache_stats_breakdown[GLOBAL_ACC_R][HIT_RESERVED] = 0
	Total_core_cache_stats_breakdown[GLOBAL_ACC_R][MISS] = 34
	Total_core_cache_stats_breakdown[GLOBAL_ACC_R][RESERVATION_FAIL] = 0
	Total_core_cache_stats_breakdown[GLOBAL_ACC_R][SECTOR_MISS] = 0
	Total_core_cache_stats_breakdown[LOCAL_ACC_R][HIT] = 0
	Total_core_cache_stats_breakdown[LOCAL_ACC_R][HIT_RESERVED] = 0
	Total_core_cache_stats_breakdown[LOCAL_ACC_R][MISS] = 0
	Total_core_cache_stats_breakdown[LOCAL_ACC_R][RESERVATION_FAIL] = 0
	Total_core_cache_stats_breakdown[LOCAL_ACC_R][SECTOR_MISS] = 0
	Total_core_cache_stats_breakdown[CONST_ACC_R][HIT] = 2
	Total_core_cache_stats_breakdown[CONST_ACC_R][HIT_RESERVED] = 0
	Total_core_cache_stats_breakdown[CONST_ACC_R][MISS] = 5
	Total_core_cache_stats_breakdown[CONST_ACC_R][RESERVATION_FAIL] = 0
	Total_core_cache_stats_breakdown[CONST_ACC_R][SECTOR_MISS] = 0
	Total_core_cache_stats_breakdown[TEXTURE_ACC_R][HIT] = 0
	Total_core_cache_stats_breakdown[TEXTURE_ACC_R][HIT_RESERVED] = 0
	Total_core_cache_stats_breakdown[TEXTURE_ACC_R][MISS] = 0
	Total_core_cache_stats_breakdown[TEXTURE_ACC_R][RESERVATION_FAIL] = 0
	Total_core_cache_stats_breakdown[TEXTURE_ACC_R][SECTOR_MISS] = 0
	Total_core_cache_stats_breakdown[GLOBAL_ACC_W][HIT] = 16
	Total_core_cache_stats_breakdown[GLOBAL_ACC_W][HIT_RESERVED] = 0
	Total_core_cache_stats_breakdown[GLOBAL_ACC_W][MISS] = 1
	Total_core_cache_stats_breakdown[GLOBAL_ACC_W][RESERVATION_FAIL] = 0
	Total_core_cache_stats_breakdown[GLOBAL_ACC_W][SECTOR_MISS] = 0
	Total_core_cache_stats_breakdown[LOCAL_ACC_W][HIT] = 0
	Total_core_cache_stats_breakdown[LOCAL_ACC_W][HIT_RESERVED] = 0
	Total_core_cache_stats_breakdown[LOCAL_ACC_W][MISS] = 0
	Total_core_cache_stats_breakdown[LOCAL_ACC_W][RESERVATION_FAIL] = 0
	Total_core_cache_stats_breakdown[LOCAL_ACC_W][SECTOR_MISS] = 0
	Total_core_cache_stats_breakdown[L1_WRBK_ACC][HIT] = 0
	Total_core_cache_stats_breakdown[L1_WRBK_ACC][HIT_RESERVED] = 0
	Total_core_cache_stats_breakdown[L1_WRBK_ACC][MISS] = 0
	Total_core_cache_stats_breakdown[L1_WRBK_ACC][RESERVATION_FAIL] = 0
	Total_core_cache_stats_breakdown[L1_WRBK_ACC][SECTOR_MISS] = 0
	Total_core_cache_stats_breakdown[L2_WRBK_ACC][HIT] = 0
	Total_core_cache_stats_breakdown[L2_WRBK_ACC][HIT_RESERVED] = 0
	Total_core_cache_stats_breakdown[L2_WRBK_ACC][MISS] = 0
	Total_core_cache_stats_breakdown[L2_WRBK_ACC][RESERVATION_FAIL] = 0
	Total_core_cache_stats_breakdown[L2_WRBK_ACC][SECTOR_MISS] = 0
	Total_core_cache_stats_breakdown[INST_ACC_R][HIT] = 240
	Total_core_cache_stats_breakdown[INST_ACC_R][HIT_RESERVED] = 0
	Total_core_cache_stats_breakdown[INST_ACC_R][MISS] = 35
	Total_core_cache_stats_breakdown[INST_ACC_R][RESERVATION_FAIL] = 0
	Total_core_cache_stats_breakdown[INST_ACC_R][SECTOR_MISS] = 0
	Total_core_cache_stats_breakdown[L1_WR_ALLOC_R][HIT] = 0
	Total_core_cache_stats_breakdown[L1_WR_ALLOC_R][HIT_RESERVED] = 0
	Total_core_cache_stats_breakdown[L1_WR_ALLOC_R][MISS] = 0
	Total_core_cache_stats_breakdown[L1_WR_ALLOC_R][RESERVATION_FAIL] = 0
	Total_core_cache_stats_breakdown[L1_WR_ALLOC_R][SECTOR_MISS] = 0
	Total_core_cache_stats_breakdown[L2_WR_ALLOC_R][HIT] = 0
	Total_core_cache_stats_breakdown[L2_WR_ALLOC_R][HIT_RESERVED] = 0
	Total_core_cache_stats_breakdown[L2_WR_ALLOC_R][MISS] = 0
	Total_core_cache_stats_breakdown[L2_WR_ALLOC_R][RESERVATION_FAIL] = 0
	Total_core_cache_stats_breakdown[L2_WR_ALLOC_R][SECTOR_MISS] = 0
	Total_core_cache_stats_breakdown[GLOBAL_ACC_R][TOTAL_ACCESS] = 35
	Total_core_cache_stats_breakdown[CONST_ACC_R][TOTAL_ACCESS] = 7
	Total_core_cache_stats_breakdown[GLOBAL_ACC_W][TOTAL_ACCESS] = 17
	Total_core_cache_stats_breakdown[INST_ACC_R][TOTAL_ACCESS] = 275

Total_core_cache_fail_stats:
ctas_completed 1, Shader 0 warp_id issue ditsribution:
warp_id:
0, 
distro:
549, 
gpgpu_n_tot_thrd_icount = 17568
gpgpu_n_tot_w_icount = 549
gpgpu_n_stall_shd_mem = 437
gpgpu_n_mem_read_local = 0
gpgpu_n_mem_write_local = 0
gpgpu_n_mem_read_global = 34
gpgpu_n_mem_write_global = 17
gpgpu_n_mem_texture = 0
gpgpu_n_mem_const = 1
gpgpu_n_load_insn  = 289
gpgpu_n_store_insn = 256
gpgpu_n_shmem_insn = 1825
gpgpu_n_sstarr_insn = 0
gpgpu_n_tex_insn = 0
gpgpu_n_const_mem_insn = 0
gpgpu_n_param_mem_insn = 112
gpgpu_n_shmem_bkconflict = 0
gpgpu_n_cache_bkconflict = 0
gpgpu_n_intrawarp_mshr_merge = 0
gpgpu_n_cmem_portconflict = 0
gpgpu_stall_shd_mem[c_mem][resource_stall] = 0
gpgpu_stall_shd_mem[s_mem][bk_conf] = 420
gpgpu_stall_shd_mem[gl_mem][resource_stall] = 0
gpgpu_stall_shd_mem[gl_mem][coal_stall] = 17
gpgpu_stall_shd_mem[gl_mem][data_port_stall] = 0
gpu_reg_bank_conflict_stalls = 0
Warp Occupancy Distribution:
Stall:0	W0_Idle:31896	W0_Scoreboard:4031	W1:24	W2:20	W3:20	W4:20	W5:20	W6:20	W7:20	W8:20	W9:20	W10:20	W11:20	W12:20	W13:20	W14:20	W15:20	W16:245	W17:0	W18:0	W19:0	W20:0	W21:0	W22:0	W23:0	W24:0	W25:0	W26:0	W27:0	W28:0	W29:0	W30:0	W31:0	W32:0
single_issue_nums: WS0:549	WS1:0	
dual_issue_nums: WS0:0	WS1:0	
traffic_breakdown_coretomem[CONST_ACC_R] = 8 {8:1,}
traffic_breakdown_coretomem[GLOBAL_ACC_R] = 272 {8:34,}
traffic_breakdown_coretomem[GLOBAL_ACC_W] = 2088 {40:1,72:2,136:14,}
traffic_breakdown_coretomem[INST_ACC_R] = 280 {8:35,}
traffic_breakdown_memtocore[CONST_ACC_R] = 80 {40:2,}
traffic_breakdown_memtocore[GLOBAL_ACC_R] = 5440 {40:136,}
traffic_breakdown_memtocore[GLOBAL_ACC_W] = 488 {8:61,}
traffic_breakdown_memtocore[INST_ACC_R] = 5600 {40:140,}
maxmflatency = 263 
max_icnt2mem_latency = 46 
maxmrqlatency = 21 
max_icnt2sh_latency = 47 
averagemflatency = 139 
avg_icnt2mem_latency = 12 
avg_mrq_latency = 4 
avg_icnt2sh_latency = 13 
mrq_lat_table:66 	36 	0 	36 	4 	0 	0 	0 	0 	0 	0 	0 	0 	0 	0 	0 	0 	0 	0 	0 	0 	0 	0 	0 	0 	0 	0 	0 	0 	0 	0 	0 	
dq_lat_table:0 	0 	0 	0 	0 	0 	0 	0 	0 	0 	0 	0 	0 	0 	0 	0 	0 	0 	0 	0 	0 	0 	0 	0 	0 	0 	0 	0 	0 	0 	0 	0 	
mf_lat_table:0 	0 	0 	0 	0 	0 	0 	197 	2 	0 	0 	0 	0 	0 	0 	0 	0 	0 	0 	0 	0 	0 	0 	0 	0 	0 	0 	0 	0 	0 	0 	0 	
icnt2mem_lat_table:0 	0 	35 	1 	0 	51 	0 	0 	0 	0 	0 	0 	0 	0 	0 	0 	0 	0 	0 	0 	0 	0 	0 	0 	
icnt2sh_lat_table:0 	0 	138 	12 	24 	25 	0 	0 	0 	0 	0 	0 	0 	0 	0 	0 	0 	0 	0 	0 	0 	0 	0 	0 	
mf_lat_pw_table:0 	0 	0 	0 	0 	0 	0 	11 	1 	0 	0 	0 	0 	0 	0 	0 	0 	0 	0 	0 	0 	0 	0 	0 	0 	0 	0 	0 	0 	0 	0 	0 	
maximum concurrent accesses to same row:
dram[0]:         4         0         0         0         0         0         0         0         0         0         0         0         0         0         0         0 
dram[1]:         0         0         0         0         0         0         0         0         0         0         0         0         0         0         0         0 
dram[2]:         0         0         0         0         0         0         0         0         0         0         0         0         0         0         0         0 
dram[3]:         0         0         0         0         0         0         0         0         0         0         0         0         0         0         0         0 
dram[4]:         0         0         0         0         0         0         0         0         0         0         0         0         0         0         0         0 
dram[5]:         0         0         0         0         0         0         0         0         0         0         0         0         0         0         0         0 
maximum service time to same row:
dram[0]:       335      8291         0         0         0         0         0         0         0         0         0         0         0         0         0         0 
dram[1]:      1547      9188         0         0         0         0         0         0         0         0         0         0         0         0         0         0 
dram[2]:      4012     10116         0         0         0         0         0         0         0         0         0         0         0         0         0         0 
dram[3]:      5685     11006         0         0         0         0         0         0         0         0         0         0         0         0         0         0 
dram[4]:      6513     11924         0         0         0         0         0         0         0         0         0         0         0         0         0         0 
dram[5]:      7371     12815         0         0         0         0         0         0         0         0         0         0         0         0         0         0 
average row accesses per activate:
dram[0]:  6.000000  8.000000      -nan      -nan      -nan      -nan      -nan      -nan      -nan      -nan      -nan      -nan      -nan      -nan      -nan      -nan 
dram[1]: 16.000000  8.000000      -nan      -nan      -nan      -nan      -nan      -nan      -nan      -nan      -nan      -nan      -nan      -nan      -nan      -nan 
dram[2]: 16.000000  8.000000      -nan      -nan      -nan      -nan      -nan      -nan      -nan      -nan      -nan      -nan      -nan      -nan      -nan      -nan 
dram[3]: 16.000000  8.000000      -nan      -nan      -nan      -nan      -nan      -nan      -nan      -nan      -nan      -nan      -nan      -nan      -nan      -nan 
dram[4]: 16.000000  8.000000      -nan      -nan      -nan      -nan      -nan      -nan      -nan      -nan      -nan      -nan      -nan      -nan      -nan      -nan 
dram[5]: 12.000000  8.000000      -nan      -nan      -nan      -nan      -nan      -nan      -nan      -nan      -nan      -nan      -nan      -nan      -nan      -nan 
average row locality = 142/14 = 10.142858
number of total memory accesses made:
dram[0]:         0         0         0         0         0         0         0         0         0         0         0         0         0         0         0         0 
dram[1]:         0         0         0         0         0         0         0         0         0         0         0         0         0         0         0         0 
dram[2]:         0         0         0         0         0         0         0         0         0         0         0         0         0         0         0         0 
dram[3]:         0         0         0         0         0         0         0         0         0         0         0         0         0         0         0         0 
dram[4]:         0         0         0         0         0         0         0         0         0         0         0         0         0         0         0         0 
dram[5]:         0         0         0         0         0         0         0         0         0         0         0         0         0         0         0         0 
total accesses: 0
min_bank_accesses = 0!
min_chip_accesses = 0!
number of total read accesses:
dram[0]:         0         0         0         0         0         0         0         0         0         0         0         0         0         0         0         0 
dram[1]:         0         0         0         0         0         0         0         0         0         0         0         0         0         0         0         0 
dram[2]:         0         0         0         0         0         0         0         0         0         0         0         0         0         0         0         0 
dram[3]:         0         0         0         0         0         0         0         0         0         0         0         0         0         0         0         0 
dram[4]:         0         0         0         0         0         0         0         0         0         0         0         0         0         0         0         0 
dram[5]:         0         0         0         0         0         0         0         0         0         0         0         0         0         0         0         0 
total dram reads = 0
min_bank_accesses = 0!
min_chip_accesses = 0!
number of total write accesses:
dram[0]:         0         0         0         0         0         0         0         0         0         0         0         0         0         0         0         0 
dram[1]:         0         0         0         0         0         0         0         0         0         0         0         0         0         0         0         0 
dram[2]:         0         0         0         0         0         0         0         0         0         0         0         0         0         0         0         0 
dram[3]:         0         0         0         0         0         0         0         0         0         0         0         0         0         0         0         0 
dram[4]:         0         0         0         0         0         0         0         0         0         0         0         0         0         0         0         0 
dram[5]:         0         0         0         0         0         0         0         0         0         0         0         0         0         0         0         0 
total dram writes = 0
min_bank_accesses = 0!
min_chip_accesses = 0!
average mf latency per bank:
dram[0]:     none      none      none      none      none      none      none      none      none      none      none      none      none      none      none      none  
dram[1]:     none      none      none      none      none      none      none      none      none      none      none      none      none      none      none      none  
dram[2]:     none      none      none      none      none      none      none      none      none      none      none      none      none      none      none      none  
dram[3]:     none      none      none      none      none      none      none      none      none      none      none      none      none      none      none      none  
dram[4]:     none      none      none      none      none      none      none      none      none      none      none      none      none      none      none      none  
dram[5]:     none      none      none      none      none      none      none      none      none      none      none      none      none      none      none      none  
maximum mf latency per bank:
dram[0]:        263         0         0         0         0         0         0         0         0         0         0         0         0         0         0         0
dram[1]:          0         0         0         0         0         0         0         0         0         0       174         0         0         0         0         0
dram[2]:          0       132         0         0         0         0         0         0         0         0         0         0         0         0         0         0
dram[3]:          0         0         0         0         0         0         0         0         0         0         0       174         0         0         0         0
dram[4]:        135         0         0         0         0         0         0         0         0         0         0         0         0         0         0         0
dram[5]:          0         0         0         0         0         0         0         0         0         0       177         0         0         0         0         0
Memory Partition 0: 
Cache L2_bank_000:
MSHR contents

Cache L2_bank_001:
MSHR contents

In Dram Latency Queue (total = 0): 
DRAM[0]: 16 bks, busW=4 BL=8 CL=12, tRRD=6 tCCD=2, tRCD=12 tRAS=28 tRP=12 tRC=40
n_cmd=24075 n_nop=24043 n_act=4 n_pre=2 n_ref_event=94204993244752 n_req=26 n_rd=26 n_rd_L2_A=0 n_write=0 n_wr_bk=0 bw_util=0.00216
n_activity=247 dram_eff=0.2105
bk0: 18a 23990i bk1: 8a 24049i bk2: 0a 24072i bk3: 0a 24073i bk4: 0a 24073i bk5: 0a 24075i bk6: 0a 24075i bk7: 0a 24075i bk8: 0a 24075i bk9: 0a 24075i bk10: 0a 24075i bk11: 0a 24075i bk12: 0a 24075i bk13: 0a 24076i bk14: 0a 24076i bk15: 0a 24078i 

------------------------------------------------------------------------

Row_Buffer_Locality = 0.846154
Row_Buffer_Locality_read = 0.846154
Row_Buffer_Locality_write = -nan
Bank_Level_Parallism = 1.000000
Bank_Level_Parallism_Col = 0.673440
Bank_Level_Parallism_Ready = 1.000000
write_to_read_ratio_blp_rw_average = 0.000000
GrpLevelPara = 0.000000 

BW Util details:
bwutil = 0.002160 
total_CMD = 24075 
util_bw = 52 
Wasted_Col = 67 
Wasted_Row = 24 
Idle = 23932 

BW Util Bottlenecks: 
RCDc_limit = 48 
RCDWRc_limit = 0 
WTRc_limit = 0 
RTWc_limit = 0 
CCDLc_limit = 19 
rwq = 0 
CCDLc_limit_alone = 19 
WTRc_limit_alone = 0 
RTWc_limit_alone = 0 

Commands details: 
total_CMD = 24075 
n_nop = 24043 
Read = 26 
Write = 0 
L2_Alloc = 0 
L2_WB = 0 
n_act = 4 
n_pre = 2 
n_ref = 94204993244752 
n_req = 26 
total_req = 26 

Dual Bus Interface Util: 
issued_total_row = 6 
issued_total_col = 26 
Row_Bus_Util =  0.000249 
CoL_Bus_Util = 0.001080 
Either_Row_CoL_Bus_Util = 0.001329 
Issued_on_Two_Bus_Simul_Util = 0.000000 
issued_two_Eff = 0.000000 
queue_avg = 0.008017 


dram_util_bins: 0 0 0 0 0 0 0 0 0 0
dram_eff_bins: 0 0 0 0 0 0 0 0 0 0
mrqq: max=3 avg=0.00801662
Memory Partition 1: 
Cache L2_bank_002:
MSHR contents

Cache L2_bank_003:
MSHR contents

In Dram Latency Queue (total = 0): 
DRAM[1]: 16 bks, busW=4 BL=8 CL=12, tRRD=6 tCCD=2, tRCD=12 tRAS=28 tRP=12 tRC=40
n_cmd=24075 n_nop=24049 n_act=2 n_pre=0 n_ref_event=0 n_req=24 n_rd=24 n_rd_L2_A=0 n_write=0 n_wr_bk=0 bw_util=0.001994
n_activity=164 dram_eff=0.2927
bk0: 16a 24041i bk1: 8a 24051i bk2: 0a 24074i bk3: 0a 24074i bk4: 0a 24074i bk5: 0a 24074i bk6: 0a 24074i bk7: 0a 24074i bk8: 0a 24074i bk9: 0a 24075i bk10: 0a 24075i bk11: 0a 24076i bk12: 0a 24076i bk13: 0a 24076i bk14: 0a 24076i bk15: 0a 24076i 

------------------------------------------------------------------------

Row_Buffer_Locality = 0.916667
Row_Buffer_Locality_read = 0.916667
Row_Buffer_Locality_write = -nan
Bank_Level_Parallism = 1.000000
Bank_Level_Parallism_Col = 1.004557
Bank_Level_Parallism_Ready = 1.000000
write_to_read_ratio_blp_rw_average = 0.000000
GrpLevelPara = 0.000000 

BW Util details:
bwutil = 0.001994 
total_CMD = 24075 
util_bw = 48 
Wasted_Col = 42 
Wasted_Row = 0 
Idle = 23985 

BW Util Bottlenecks: 
RCDc_limit = 24 
RCDWRc_limit = 0 
WTRc_limit = 0 
RTWc_limit = 0 
CCDLc_limit = 18 
rwq = 0 
CCDLc_limit_alone = 18 
WTRc_limit_alone = 0 
RTWc_limit_alone = 0 

Commands details: 
total_CMD = 24075 
n_nop = 24049 
Read = 24 
Write = 0 
L2_Alloc = 0 
L2_WB = 0 
n_act = 2 
n_pre = 0 
n_ref = 0 
n_req = 24 
total_req = 24 

Dual Bus Interface Util: 
issued_total_row = 2 
issued_total_col = 24 
Row_Bus_Util =  0.000083 
CoL_Bus_Util = 0.000997 
Either_Row_CoL_Bus_Util = 0.001080 
Issued_on_Two_Bus_Simul_Util = 0.000000 
issued_two_Eff = 0.000000 
queue_avg = 0.003988 


dram_util_bins: 0 0 0 0 0 0 0 0 0 0
dram_eff_bins: 0 0 0 0 0 0 0 0 0 0
mrqq: max=3 avg=0.00398754
Memory Partition 2: 
Cache L2_bank_004:
MSHR contents

Cache L2_bank_005:
MSHR contents

In Dram Latency Queue (total = 0): 
DRAM[2]: 16 bks, busW=4 BL=8 CL=12, tRRD=6 tCCD=2, tRCD=12 tRAS=28 tRP=12 tRC=40
n_cmd=24075 n_nop=24049 n_act=2 n_pre=0 n_ref_event=0 n_req=24 n_rd=24 n_rd_L2_A=0 n_write=0 n_wr_bk=0 bw_util=0.001994
n_activity=164 dram_eff=0.2927
bk0: 16a 24042i bk1: 8a 24052i bk2: 0a 24074i bk3: 0a 24074i bk4: 0a 24074i bk5: 0a 24074i bk6: 0a 24074i bk7: 0a 24074i bk8: 0a 24074i bk9: 0a 24075i bk10: 0a 24075i bk11: 0a 24076i bk12: 0a 24076i bk13: 0a 24076i bk14: 0a 24076i bk15: 0a 24076i 

------------------------------------------------------------------------

Row_Buffer_Locality = 0.916667
Row_Buffer_Locality_read = 0.916667
Row_Buffer_Locality_write = -nan
Bank_Level_Parallism = 1.000000
Bank_Level_Parallism_Col = 1.004513
Bank_Level_Parallism_Ready = 1.000000
write_to_read_ratio_blp_rw_average = 0.000000
GrpLevelPara = 0.000000 

BW Util details:
bwutil = 0.001994 
total_CMD = 24075 
util_bw = 48 
Wasted_Col = 42 
Wasted_Row = 0 
Idle = 23985 

BW Util Bottlenecks: 
RCDc_limit = 24 
RCDWRc_limit = 0 
WTRc_limit = 0 
RTWc_limit = 0 
CCDLc_limit = 18 
rwq = 0 
CCDLc_limit_alone = 18 
WTRc_limit_alone = 0 
RTWc_limit_alone = 0 

Commands details: 
total_CMD = 24075 
n_nop = 24049 
Read = 24 
Write = 0 
L2_Alloc = 0 
L2_WB = 0 
n_act = 2 
n_pre = 0 
n_ref = 0 
n_req = 24 
total_req = 24 

Dual Bus Interface Util: 
issued_total_row = 2 
issued_total_col = 24 
Row_Bus_Util =  0.000083 
CoL_Bus_Util = 0.000997 
Either_Row_CoL_Bus_Util = 0.001080 
Issued_on_Two_Bus_Simul_Util = 0.000000 
issued_two_Eff = 0.000000 
queue_avg = 0.004071 


dram_util_bins: 0 0 0 0 0 0 0 0 0 0
dram_eff_bins: 0 0 0 0 0 0 0 0 0 0
mrqq: max=3 avg=0.00407061
Memory Partition 3: 
Cache L2_bank_006:
MSHR contents

Cache L2_bank_007:
MSHR contents

In Dram Latency Queue (total = 0): 
DRAM[3]: 16 bks, busW=4 BL=8 CL=12, tRRD=6 tCCD=2, tRCD=12 tRAS=28 tRP=12 tRC=40
n_cmd=24075 n_nop=24049 n_act=2 n_pre=0 n_ref_event=0 n_req=24 n_rd=24 n_rd_L2_A=0 n_write=0 n_wr_bk=0 bw_util=0.001994
n_activity=164 dram_eff=0.2927
bk0: 16a 24042i bk1: 8a 24051i bk2: 0a 24074i bk3: 0a 24074i bk4: 0a 24074i bk5: 0a 24074i bk6: 0a 24074i bk7: 0a 24074i bk8: 0a 24074i bk9: 0a 24075i bk10: 0a 24075i bk11: 0a 24076i bk12: 0a 24076i bk13: 0a 24076i bk14: 0a 24076i bk15: 0a 24076i 

------------------------------------------------------------------------

Row_Buffer_Locality = 0.916667
Row_Buffer_Locality_read = 0.916667
Row_Buffer_Locality_write = -nan
Bank_Level_Parallism = 1.000000
Bank_Level_Parallism_Col = 1.000000
Bank_Level_Parallism_Ready = 1.000000
write_to_read_ratio_blp_rw_average = 0.000000
GrpLevelPara = 1.000000 

BW Util details:
bwutil = 0.001994 
total_CMD = 24075 
util_bw = 48 
Wasted_Col = 42 
Wasted_Row = 0 
Idle = 23985 

BW Util Bottlenecks: 
RCDc_limit = 24 
RCDWRc_limit = 0 
WTRc_limit = 0 
RTWc_limit = 0 
CCDLc_limit = 18 
rwq = 0 
CCDLc_limit_alone = 18 
WTRc_limit_alone = 0 
RTWc_limit_alone = 0 

Commands details: 
total_CMD = 24075 
n_nop = 24049 
Read = 24 
Write = 0 
L2_Alloc = 0 
L2_WB = 0 
n_act = 2 
n_pre = 0 
n_ref = 0 
n_req = 24 
total_req = 24 

Dual Bus Interface Util: 
issued_total_row = 2 
issued_total_col = 24 
Row_Bus_Util =  0.000083 
CoL_Bus_Util = 0.000997 
Either_Row_CoL_Bus_Util = 0.001080 
Issued_on_Two_Bus_Simul_Util = 0.000000 
issued_two_Eff = 0.000000 
queue_avg = 0.004112 


dram_util_bins: 0 0 0 0 0 0 0 0 0 0
dram_eff_bins: 0 0 0 0 0 0 0 0 0 0
mrqq: max=3 avg=0.00411215
Memory Partition 4: 
Cache L2_bank_008:
MSHR contents

Cache L2_bank_009:
MSHR contents

In Dram Latency Queue (total = 0): 
DRAM[4]: 16 bks, busW=4 BL=8 CL=12, tRRD=6 tCCD=2, tRCD=12 tRAS=28 tRP=12 tRC=40
n_cmd=24075 n_nop=24049 n_act=2 n_pre=0 n_ref_event=4565658604079112714 n_req=24 n_rd=24 n_rd_L2_A=0 n_write=0 n_wr_bk=0 bw_util=0.001994
n_activity=164 dram_eff=0.2927
bk0: 16a 24041i bk1: 8a 24052i bk2: 0a 24074i bk3: 0a 24074i bk4: 0a 24074i bk5: 0a 24074i bk6: 0a 24074i bk7: 0a 24074i bk8: 0a 24074i bk9: 0a 24075i bk10: 0a 24075i bk11: 0a 24076i bk12: 0a 24076i bk13: 0a 24076i bk14: 0a 24076i bk15: 0a 24076i 

------------------------------------------------------------------------

Row_Buffer_Locality = 0.916667
Row_Buffer_Locality_read = 0.916667
Row_Buffer_Locality_write = -nan
Bank_Level_Parallism = 1.000000
Bank_Level_Parallism_Col = 1.000000
Bank_Level_Parallism_Ready = 1.000000
write_to_read_ratio_blp_rw_average = 0.000000
GrpLevelPara = 1.000000 

BW Util details:
bwutil = 0.001994 
total_CMD = 24075 
util_bw = 48 
Wasted_Col = 42 
Wasted_Row = 0 
Idle = 23985 

BW Util Bottlenecks: 
RCDc_limit = 24 
RCDWRc_limit = 0 
WTRc_limit = 0 
RTWc_limit = 0 
CCDLc_limit = 18 
rwq = 0 
CCDLc_limit_alone = 18 
WTRc_limit_alone = 0 
RTWc_limit_alone = 0 

Commands details: 
total_CMD = 24075 
n_nop = 24049 
Read = 24 
Write = 0 
L2_Alloc = 0 
L2_WB = 0 
n_act = 2 
n_pre = 0 
n_ref = 4565658604079112714 
n_req = 24 
total_req = 24 

Dual Bus Interface Util: 
issued_total_row = 2 
issued_total_col = 24 
Row_Bus_Util =  0.000083 
CoL_Bus_Util = 0.000997 
Either_Row_CoL_Bus_Util = 0.001080 
Issued_on_Two_Bus_Simul_Util = 0.000000 
issued_two_Eff = 0.000000 
queue_avg = 0.004112 


dram_util_bins: 0 0 0 0 0 0 0 0 0 0
dram_eff_bins: 0 0 0 0 0 0 0 0 0 0
mrqq: max=3 avg=0.00411215
Memory Partition 5: 
Cache L2_bank_010:
MSHR contents

Cache L2_bank_011:
MSHR contents

In Dram Latency Queue (total = 0): 
DRAM[5]: 16 bks, busW=4 BL=8 CL=12, tRRD=6 tCCD=2, tRCD=12 tRAS=28 tRP=12 tRC=40
n_cmd=24075 n_nop=24053 n_act=2 n_pre=0 n_ref_event=0 n_req=20 n_rd=20 n_rd_L2_A=0 n_write=0 n_wr_bk=0 bw_util=0.001661
n_activity=143 dram_eff=0.2797
bk0: 12a 24046i bk1: 8a 24052i bk2: 0a 24074i bk3: 0a 24074i bk4: 0a 24074i bk5: 0a 24074i bk6: 0a 24074i bk7: 0a 24074i bk8: 0a 24074i bk9: 0a 24075i bk10: 0a 24075i bk11: 0a 24076i bk12: 0a 24076i bk13: 0a 24076i bk14: 0a 24076i bk15: 0a 24076i 

------------------------------------------------------------------------

Row_Buffer_Locality = 0.900000
Row_Buffer_Locality_read = 0.900000
Row_Buffer_Locality_write = -nan
Bank_Level_Parallism = 1.000000
Bank_Level_Parallism_Col = 0.000000
Bank_Level_Parallism_Ready = 1.000000
write_to_read_ratio_blp_rw_average = 0.000000
GrpLevelPara = 0.000000 

BW Util details:
bwutil = 0.001661 
total_CMD = 24075 
util_bw = 40 
Wasted_Col = 39 
Wasted_Row = 0 
Idle = 23996 

BW Util Bottlenecks: 
RCDc_limit = 24 
RCDWRc_limit = 0 
WTRc_limit = 0 
RTWc_limit = 0 
CCDLc_limit = 15 
rwq = 0 
CCDLc_limit_alone = 15 
WTRc_limit_alone = 0 
RTWc_limit_alone = 0 

Commands details: 
total_CMD = 24075 
n_nop = 24053 
Read = 20 
Write = 0 
L2_Alloc = 0 
L2_WB = 0 
n_act = 2 
n_pre = 0 
n_ref = 0 
n_req = 20 
total_req = 20 

Dual Bus Interface Util: 
issued_total_row = 2 
issued_total_col = 20 
Row_Bus_Util =  0.000083 
CoL_Bus_Util = 0.000831 
Either_Row_CoL_Bus_Util = 0.000914 
Issued_on_Two_Bus_Simul_Util = 0.000000 
issued_two_Eff = 0.000000 
queue_avg = 0.003946 


dram_util_bins: 0 0 0 0 0 0 0 0 0 0
dram_eff_bins: 0 0 0 0 0 0 0 0 0 0
mrqq: max=3 avg=0.003946

========= L2 cache stats =========
L2_cache_bank[0]: Access = 38, Miss = 18, Miss_rate = 0.474, Pending_hits = 0, Reservation_fails = 0
L2_cache_bank[1]: Access = 8, Miss = 8, Miss_rate = 1.000, Pending_hits = 0, Reservation_fails = 0
L2_cache_bank[2]: Access = 58, Miss = 16, Miss_rate = 0.276, Pending_hits = 0, Reservation_fails = 0
L2_cache_bank[3]: Access = 8, Miss = 8, Miss_rate = 1.000, Pending_hits = 0, Reservation_fails = 0
L2_cache_bank[4]: Access = 16, Miss = 16, Miss_rate = 1.000, Pending_hits = 0, Reservation_fails = 0
L2_cache_bank[5]: Access = 28, Miss = 8, Miss_rate = 0.286, Pending_hits = 0, Reservation_fails = 0
L2_cache_bank[6]: Access = 16, Miss = 16, Miss_rate = 1.000, Pending_hits = 0, Reservation_fails = 0
L2_cache_bank[7]: Access = 48, Miss = 8, Miss_rate = 0.167, Pending_hits = 0, Reservation_fails = 0
L2_cache_bank[8]: Access = 44, Miss = 16, Miss_rate = 0.364, Pending_hits = 0, Reservation_fails = 0
L2_cache_bank[9]: Access = 8, Miss = 8, Miss_rate = 1.000, Pending_hits = 0, Reservation_fails = 0
L2_cache_bank[10]: Access = 59, Miss = 12, Miss_rate = 0.203, Pending_hits = 0, Reservation_fails = 0
L2_cache_bank[11]: Access = 8, Miss = 8, Miss_rate = 1.000, Pending_hits = 0, Reservation_fails = 0
L2_total_cache_accesses = 339
L2_total_cache_misses = 142
L2_total_cache_miss_rate = 0.4189
L2_total_cache_pending_hits = 0
L2_total_cache_reservation_fails = 0
L2_total_cache_breakdown:
	L2_cache_stats_breakdown[GLOBAL_ACC_R][HIT] = 136
	L2_cache_stats_breakdown[GLOBAL_ACC_R][HIT_RESERVED] = 0
	L2_cache_stats_breakdown[GLOBAL_ACC_R][MISS] = 0
	L2_cache_stats_breakdown[GLOBAL_ACC_R][RESERVATION_FAIL] = 0
	L2_cache_stats_breakdown[GLOBAL_ACC_R][SECTOR_MISS] = 0
	L2_cache_stats_breakdown[LOCAL_ACC_R][HIT] = 0
	L2_cache_stats_breakdown[LOCAL_ACC_R][HIT_RESERVED] = 0
	L2_cache_stats_breakdown[LOCAL_ACC_R][MISS] = 0
	L2_cache_stats_breakdown[LOCAL_ACC_R][RESERVATION_FAIL] = 0
	L2_cache_stats_breakdown[LOCAL_ACC_R][SECTOR_MISS] = 0
	L2_cache_stats_breakdown[CONST_ACC_R][HIT] = 0
	L2_cache_stats_breakdown[CONST_ACC_R][HIT_RESERVED] = 0
	L2_cache_stats_breakdown[CONST_ACC_R][MISS] = 1
	L2_cache_stats_breakdown[CONST_ACC_R][RESERVATION_FAIL] = 0
	L2_cache_stats_breakdown[CONST_ACC_R][SECTOR_MISS] = 1
	L2_cache_stats_breakdown[TEXTURE_ACC_R][HIT] = 0
	L2_cache_stats_breakdown[TEXTURE_ACC_R][HIT_RESERVED] = 0
	L2_cache_stats_breakdown[TEXTURE_ACC_R][MISS] = 0
	L2_cache_stats_breakdown[TEXTURE_ACC_R][RESERVATION_FAIL] = 0
	L2_cache_stats_breakdown[TEXTURE_ACC_R][SECTOR_MISS] = 0
	L2_cache_stats_breakdown[GLOBAL_ACC_W][HIT] = 61
	L2_cache_stats_breakdown[GLOBAL_ACC_W][HIT_RESERVED] = 0
	L2_cache_stats_breakdown[GLOBAL_ACC_W][MISS] = 0
	L2_cache_stats_breakdown[GLOBAL_ACC_W][RESERVATION_FAIL] = 0
	L2_cache_stats_breakdown[GLOBAL_ACC_W][SECTOR_MISS] = 0
	L2_cache_stats_breakdown[LOCAL_ACC_W][HIT] = 0
	L2_cache_stats_breakdown[LOCAL_ACC_W][HIT_RESERVED] = 0
	L2_cache_stats_breakdown[LOCAL_ACC_W][MISS] = 0
	L2_cache_stats_breakdown[LOCAL_ACC_W][RESERVATION_FAIL] = 0
	L2_cache_stats_breakdown[LOCAL_ACC_W][SECTOR_MISS] = 0
	L2_cache_stats_breakdown[L1_WRBK_ACC][HIT] = 0
	L2_cache_stats_breakdown[L1_WRBK_ACC][HIT_RESERVED] = 0
	L2_cache_stats_breakdown[L1_WRBK_ACC][MISS] = 0
	L2_cache_stats_breakdown[L1_WRBK_ACC][RESERVATION_FAIL] = 0
	L2_cache_stats_breakdown[L1_WRBK_ACC][SECTOR_MISS] = 0
	L2_cache_stats_breakdown[L2_WRBK_ACC][HIT] = 0
	L2_cache_stats_breakdown[L2_WRBK_ACC][HIT_RESERVED] = 0
	L2_cache_stats_breakdown[L2_WRBK_ACC][MISS] = 0
	L2_cache_stats_breakdown[L2_WRBK_ACC][RESERVATION_FAIL] = 0
	L2_cache_stats_breakdown[L2_WRBK_ACC][SECTOR_MISS] = 0
	L2_cache_stats_breakdown[INST_ACC_R][HIT] = 0
	L2_cache_stats_breakdown[INST_ACC_R][HIT_RESERVED] = 0
	L2_cache_stats_breakdown[INST_ACC_R][MISS] = 35
	L2_cache_stats_breakdown[INST_ACC_R][RESERVATION_FAIL] = 0
	L2_cache_stats_breakdown[INST_ACC_R][SECTOR_MISS] = 105
	L2_cache_stats_breakdown[L1_WR_ALLOC_R][HIT] = 0
	L2_cache_stats_breakdown[L1_WR_ALLOC_R][HIT_RESERVED] = 0
	L2_cache_stats_breakdown[L1_WR_ALLOC_R][MISS] = 0
	L2_cache_stats_breakdown[L1_WR_ALLOC_R][RESERVATION_FAIL] = 0
	L2_cache_stats_breakdown[L1_WR_ALLOC_R][SECTOR_MISS] = 0
	L2_cache_stats_breakdown[L2_WR_ALLOC_R][HIT] = 0
	L2_cache_stats_breakdown[L2_WR_ALLOC_R][HIT_RESERVED] = 0
	L2_cache_stats_breakdown[L2_WR_ALLOC_R][MISS] = 0
	L2_cache_stats_breakdown[L2_WR_ALLOC_R][RESERVATION_FAIL] = 0
	L2_cache_stats_breakdown[L2_WR_ALLOC_R][SECTOR_MISS] = 0
	L2_cache_stats_breakdown[GLOBAL_ACC_R][TOTAL_ACCESS] = 136
	L2_cache_stats_breakdown[CONST_ACC_R][TOTAL_ACCESS] = 2
	L2_cache_stats_breakdown[GLOBAL_ACC_W][TOTAL_ACCESS] = 61
	L2_cache_stats_breakdown[INST_ACC_R][TOTAL_ACCESS] = 140
L2_total_cache_reservation_fail_breakdown:
L2_cache_data_port_util = 0.001
L2_cache_fill_port_util = 0.001

icnt_total_pkts_mem_to_simt=339
icnt_total_pkts_simt_to_mem=131
LD_mem_lat_dist  0 0 0 0 0 0 0 0 0 0 0 0 0 0 0 0 0 0 0 0 0 0 0 0 0 0 0
ST_mem_lat_dist  0 0 0 0 0 0 0 0 0 0 0 0 0 0 0 0 0 0 0 0 0 0 0 0 0 0 0
----------------------------Interconnect-DETAILS--------------------------------
Class 0:
Packet latency average = 8.15493
	minimum = 5
	maximum = 45
Network latency average = 8.15493
	minimum = 5
	maximum = 45
Slowest packet = 198
Flit latency average = 7.76596
	minimum = 5
	maximum = 45
Slowest flit = 198
Fragmentation average = 0
	minimum = 0
	maximum = 0
Injected packet rate average = 0.000865057
	minimum = 0 (at node 1)
	maximum = 0.00477 (at node 0)
Accepted packet rate average = 0.000865057
	minimum = 0 (at node 1)
	maximum = 0.0185865 (at node 0)
Injected flit rate average = 0.000954406
	minimum = 0 (at node 1)
	maximum = 0.00718241 (at node 0)
Accepted flit rate average= 0.000954406
	minimum = 0 (at node 1)
	maximum = 0.0185865 (at node 0)
Injected packet length average = 1.10329
Accepted packet length average = 1.10329
Total in-flight flits = 0 (0 measured)
====== Overall Traffic Statistics ======
====== Traffic class 0 ======
Packet latency average = 8.15493 (1 samples)
	minimum = 5 (1 samples)
	maximum = 45 (1 samples)
Network latency average = 8.15493 (1 samples)
	minimum = 5 (1 samples)
	maximum = 45 (1 samples)
Flit latency average = 7.76596 (1 samples)
	minimum = 5 (1 samples)
	maximum = 45 (1 samples)
Fragmentation average = 0 (1 samples)
	minimum = 0 (1 samples)
	maximum = 0 (1 samples)
Injected packet rate average = 0.000865057 (1 samples)
	minimum = 0 (1 samples)
	maximum = 0.00477 (1 samples)
Accepted packet rate average = 0.000865057 (1 samples)
	minimum = 0 (1 samples)
	maximum = 0.0185865 (1 samples)
Injected flit rate average = 0.000954406 (1 samples)
	minimum = 0 (1 samples)
	maximum = 0.00718241 (1 samples)
Accepted flit rate average = 0.000954406 (1 samples)
	minimum = 0 (1 samples)
	maximum = 0.0185865 (1 samples)
Injected packet size average = 1.10329 (1 samples)
Accepted packet size average = 1.10329 (1 samples)
Hops average = 1 (1 samples)
----------------------------END-of-Interconnect-DETAILS-------------------------


gpgpu_simulation_time = 0 days, 0 hrs, 0 min, 1 sec (1 sec)
gpgpu_simulation_rate = 6067 (inst/sec)
gpgpu_simulation_rate = 18239 (cycle/sec)
gpgpu_silicon_slowdown = 38379x
GPGPU-Sim PTX: Setting up arguments for 8 bytes starting at 0x7ffdb4166358..
GPGPU-Sim PTX: Setting up arguments for 8 bytes starting at 0x7ffdb4166350..
GPGPU-Sim PTX: Setting up arguments for 4 bytes starting at 0x7ffdb416634c..
GPGPU-Sim PTX: Setting up arguments for 4 bytes starting at 0x7ffdb4166348..
GPGPU-Sim PTX: Setting up arguments for 4 bytes starting at 0x7ffdb4166344..
GPGPU-Sim PTX: Setting up arguments for 4 bytes starting at 0x7ffdb4166340..

GPGPU-Sim PTX: cudaLaunch for 0x0x55adce67cc32 (mode=performance simulation) on stream 0
GPGPU-Sim PTX: PDOM analysis already done for _Z20needle_cuda_shared_1PiS_iiii 
GPGPU-Sim PTX: pushing kernel '_Z20needle_cuda_shared_1PiS_iiii' to stream 0, gridDim= (2,1,1) blockDim = (16,1,1) 
GPGPU-Sim uArch: Shader 1 bind to kernel 2 '_Z20needle_cuda_shared_1PiS_iiii'
GPGPU-Sim uArch: Shader 2 bind to kernel 2 '_Z20needle_cuda_shared_1PiS_iiii'
Destroy streams for kernel 2: size 0
kernel_name = _Z20needle_cuda_shared_1PiS_iiii 
kernel_launch_uid = 2 
gpu_sim_cycle = 14154
gpu_sim_insn = 12134
gpu_ipc =       0.8573
gpu_tot_sim_cycle = 32393
gpu_tot_sim_insn = 18201
gpu_tot_ipc =       0.5619
gpu_tot_issued_cta = 3
gpu_occupancy = 2.0833% 
gpu_tot_occupancy = 2.0833% 
max_total_param_size = 0
gpu_stall_dramfull = 0
gpu_stall_icnt2sh    = 0
partiton_level_parallism =       0.0161
partiton_level_parallism_total  =       0.0097
partiton_level_parallism_util =       1.0556
partiton_level_parallism_util_total  =       1.0396
L2_BW  =       1.2059 GB/Sec
L2_BW_total  =       0.7613 GB/Sec
gpu_total_sim_rate=6067

========= Core cache stats =========
L1I_cache:
	L1I_total_cache_accesses = 825
	L1I_total_cache_misses = 105
	L1I_total_cache_miss_rate = 0.1273
	L1I_total_cache_pending_hits = 0
	L1I_total_cache_reservation_fails = 0
L1D_cache:
	L1D_cache_core[0]: Access = 52, Miss = 35, Miss_rate = 0.673, Pending_hits = 0, Reservation_fails = 0
	L1D_cache_core[1]: Access = 79, Miss = 63, Miss_rate = 0.797, Pending_hits = 0, Reservation_fails = 0
	L1D_cache_core[2]: Access = 79, Miss = 63, Miss_rate = 0.797, Pending_hits = 0, Reservation_fails = 0
	L1D_cache_core[3]: Access = 0, Miss = 0, Miss_rate = -nan, Pending_hits = 0, Reservation_fails = 0
	L1D_cache_core[4]: Access = 0, Miss = 0, Miss_rate = -nan, Pending_hits = 0, Reservation_fails = 0
	L1D_cache_core[5]: Access = 0, Miss = 0, Miss_rate = -nan, Pending_hits = 0, Reservation_fails = 0
	L1D_cache_core[6]: Access = 0, Miss = 0, Miss_rate = -nan, Pending_hits = 0, Reservation_fails = 0
	L1D_cache_core[7]: Access = 0, Miss = 0, Miss_rate = -nan, Pending_hits = 0, Reservation_fails = 0
	L1D_cache_core[8]: Access = 0, Miss = 0, Miss_rate = -nan, Pending_hits = 0, Reservation_fails = 0
	L1D_cache_core[9]: Access = 0, Miss = 0, Miss_rate = -nan, Pending_hits = 0, Reservation_fails = 0
	L1D_cache_core[10]: Access = 0, Miss = 0, Miss_rate = -nan, Pending_hits = 0, Reservation_fails = 0
	L1D_cache_core[11]: Access = 0, Miss = 0, Miss_rate = -nan, Pending_hits = 0, Reservation_fails = 0
	L1D_cache_core[12]: Access = 0, Miss = 0, Miss_rate = -nan, Pending_hits = 0, Reservation_fails = 0
	L1D_cache_core[13]: Access = 0, Miss = 0, Miss_rate = -nan, Pending_hits = 0, Reservation_fails = 0
	L1D_cache_core[14]: Access = 0, Miss = 0, Miss_rate = -nan, Pending_hits = 0, Reservation_fails = 0
	L1D_total_cache_accesses = 210
	L1D_total_cache_misses = 161
	L1D_total_cache_miss_rate = 0.7667
	L1D_total_cache_pending_hits = 0
	L1D_total_cache_reservation_fails = 0
	L1D_cache_data_port_util = 0.001
	L1D_cache_fill_port_util = 0.003
L1C_cache:
	L1C_total_cache_accesses = 21
	L1C_total_cache_misses = 15
	L1C_total_cache_miss_rate = 0.7143
	L1C_total_cache_pending_hits = 0
	L1C_total_cache_reservation_fails = 0
L1T_cache:
	L1T_total_cache_accesses = 0
	L1T_total_cache_misses = 0
	L1T_total_cache_pending_hits = 0
	L1T_total_cache_reservation_fails = 0

Total_core_cache_stats:
	Total_core_cache_stats_breakdown[GLOBAL_ACC_R][HIT] = 3
	Total_core_cache_stats_breakdown[GLOBAL_ACC_R][HIT_RESERVED] = 0
	Total_core_cache_stats_breakdown[GLOBAL_ACC_R][MISS] = 130
	Total_core_cache_stats_breakdown[GLOBAL_ACC_R][RESERVATION_FAIL] = 0
	Total_core_cache_stats_breakdown[GLOBAL_ACC_R][SECTOR_MISS] = 0
	Total_core_cache_stats_breakdown[LOCAL_ACC_R][HIT] = 0
	Total_core_cache_stats_breakdown[LOCAL_ACC_R][HIT_RESERVED] = 0
	Total_core_cache_stats_breakdown[LOCAL_ACC_R][MISS] = 0
	Total_core_cache_stats_breakdown[LOCAL_ACC_R][RESERVATION_FAIL] = 0
	Total_core_cache_stats_breakdown[LOCAL_ACC_R][SECTOR_MISS] = 0
	Total_core_cache_stats_breakdown[CONST_ACC_R][HIT] = 6
	Total_core_cache_stats_breakdown[CONST_ACC_R][HIT_RESERVED] = 0
	Total_core_cache_stats_breakdown[CONST_ACC_R][MISS] = 15
	Total_core_cache_stats_breakdown[CONST_ACC_R][RESERVATION_FAIL] = 0
	Total_core_cache_stats_breakdown[CONST_ACC_R][SECTOR_MISS] = 0
	Total_core_cache_stats_breakdown[TEXTURE_ACC_R][HIT] = 0
	Total_core_cache_stats_breakdown[TEXTURE_ACC_R][HIT_RESERVED] = 0
	Total_core_cache_stats_breakdown[TEXTURE_ACC_R][MISS] = 0
	Total_core_cache_stats_breakdown[TEXTURE_ACC_R][RESERVATION_FAIL] = 0
	Total_core_cache_stats_breakdown[TEXTURE_ACC_R][SECTOR_MISS] = 0
	Total_core_cache_stats_breakdown[GLOBAL_ACC_W][HIT] = 46
	Total_core_cache_stats_breakdown[GLOBAL_ACC_W][HIT_RESERVED] = 0
	Total_core_cache_stats_breakdown[GLOBAL_ACC_W][MISS] = 31
	Total_core_cache_stats_breakdown[GLOBAL_ACC_W][RESERVATION_FAIL] = 0
	Total_core_cache_stats_breakdown[GLOBAL_ACC_W][SECTOR_MISS] = 0
	Total_core_cache_stats_breakdown[LOCAL_ACC_W][HIT] = 0
	Total_core_cache_stats_breakdown[LOCAL_ACC_W][HIT_RESERVED] = 0
	Total_core_cache_stats_breakdown[LOCAL_ACC_W][MISS] = 0
	Total_core_cache_stats_breakdown[LOCAL_ACC_W][RESERVATION_FAIL] = 0
	Total_core_cache_stats_breakdown[LOCAL_ACC_W][SECTOR_MISS] = 0
	Total_core_cache_stats_breakdown[L1_WRBK_ACC][HIT] = 0
	Total_core_cache_stats_breakdown[L1_WRBK_ACC][HIT_RESERVED] = 0
	Total_core_cache_stats_breakdown[L1_WRBK_ACC][MISS] = 0
	Total_core_cache_stats_breakdown[L1_WRBK_ACC][RESERVATION_FAIL] = 0
	Total_core_cache_stats_breakdown[L1_WRBK_ACC][SECTOR_MISS] = 0
	Total_core_cache_stats_breakdown[L2_WRBK_ACC][HIT] = 0
	Total_core_cache_stats_breakdown[L2_WRBK_ACC][HIT_RESERVED] = 0
	Total_core_cache_stats_breakdown[L2_WRBK_ACC][MISS] = 0
	Total_core_cache_stats_breakdown[L2_WRBK_ACC][RESERVATION_FAIL] = 0
	Total_core_cache_stats_breakdown[L2_WRBK_ACC][SECTOR_MISS] = 0
	Total_core_cache_stats_breakdown[INST_ACC_R][HIT] = 720
	Total_core_cache_stats_breakdown[INST_ACC_R][HIT_RESERVED] = 0
	Total_core_cache_stats_breakdown[INST_ACC_R][MISS] = 105
	Total_core_cache_stats_breakdown[INST_ACC_R][RESERVATION_FAIL] = 0
	Total_core_cache_stats_breakdown[INST_ACC_R][SECTOR_MISS] = 0
	Total_core_cache_stats_breakdown[L1_WR_ALLOC_R][HIT] = 0
	Total_core_cache_stats_breakdown[L1_WR_ALLOC_R][HIT_RESERVED] = 0
	Total_core_cache_stats_breakdown[L1_WR_ALLOC_R][MISS] = 0
	Total_core_cache_stats_breakdown[L1_WR_ALLOC_R][RESERVATION_FAIL] = 0
	Total_core_cache_stats_breakdown[L1_WR_ALLOC_R][SECTOR_MISS] = 0
	Total_core_cache_stats_breakdown[L2_WR_ALLOC_R][HIT] = 0
	Total_core_cache_stats_breakdown[L2_WR_ALLOC_R][HIT_RESERVED] = 0
	Total_core_cache_stats_breakdown[L2_WR_ALLOC_R][MISS] = 0
	Total_core_cache_stats_breakdown[L2_WR_ALLOC_R][RESERVATION_FAIL] = 0
	Total_core_cache_stats_breakdown[L2_WR_ALLOC_R][SECTOR_MISS] = 0
	Total_core_cache_stats_breakdown[GLOBAL_ACC_R][TOTAL_ACCESS] = 133
	Total_core_cache_stats_breakdown[CONST_ACC_R][TOTAL_ACCESS] = 21
	Total_core_cache_stats_breakdown[GLOBAL_ACC_W][TOTAL_ACCESS] = 77
	Total_core_cache_stats_breakdown[INST_ACC_R][TOTAL_ACCESS] = 825

Total_core_cache_fail_stats:
ctas_completed 3, Shader 0 warp_id issue ditsribution:
warp_id:
0, 
distro:
549, 
gpgpu_n_tot_thrd_icount = 52704
gpgpu_n_tot_w_icount = 1647
gpgpu_n_stall_shd_mem = 1365
gpgpu_n_mem_read_local = 0
gpgpu_n_mem_write_local = 0
gpgpu_n_mem_read_global = 130
gpgpu_n_mem_write_global = 77
gpgpu_n_mem_texture = 0
gpgpu_n_mem_const = 3
gpgpu_n_load_insn  = 867
gpgpu_n_store_insn = 768
gpgpu_n_shmem_insn = 5475
gpgpu_n_sstarr_insn = 0
gpgpu_n_tex_insn = 0
gpgpu_n_const_mem_insn = 0
gpgpu_n_param_mem_insn = 336
gpgpu_n_shmem_bkconflict = 0
gpgpu_n_cache_bkconflict = 0
gpgpu_n_intrawarp_mshr_merge = 0
gpgpu_n_cmem_portconflict = 0
gpgpu_stall_shd_mem[c_mem][resource_stall] = 0
gpgpu_stall_shd_mem[s_mem][bk_conf] = 1260
gpgpu_stall_shd_mem[gl_mem][resource_stall] = 0
gpgpu_stall_shd_mem[gl_mem][coal_stall] = 105
gpgpu_stall_shd_mem[gl_mem][data_port_stall] = 0
gpu_reg_bank_conflict_stalls = 0
Warp Occupancy Distribution:
Stall:0	W0_Idle:79248	W0_Scoreboard:12169	W1:72	W2:60	W3:60	W4:60	W5:60	W6:60	W7:60	W8:60	W9:60	W10:60	W11:60	W12:60	W13:60	W14:60	W15:60	W16:735	W17:0	W18:0	W19:0	W20:0	W21:0	W22:0	W23:0	W24:0	W25:0	W26:0	W27:0	W28:0	W29:0	W30:0	W31:0	W32:0
single_issue_nums: WS0:1647	WS1:0	
dual_issue_nums: WS0:0	WS1:0	
traffic_breakdown_coretomem[CONST_ACC_R] = 24 {8:3,}
traffic_breakdown_coretomem[GLOBAL_ACC_R] = 1040 {8:130,}
traffic_breakdown_coretomem[GLOBAL_ACC_W] = 5576 {40:31,72:30,136:16,}
traffic_breakdown_coretomem[INST_ACC_R] = 840 {8:105,}
traffic_breakdown_memtocore[CONST_ACC_R] = 240 {40:6,}
traffic_breakdown_memtocore[GLOBAL_ACC_R] = 20800 {40:520,}
traffic_breakdown_memtocore[GLOBAL_ACC_W] = 1240 {8:155,}
traffic_breakdown_memtocore[INST_ACC_R] = 16800 {40:420,}
maxmflatency = 263 
max_icnt2mem_latency = 46 
maxmrqlatency = 21 
max_icnt2sh_latency = 60 
averagemflatency = 142 
avg_icnt2mem_latency = 14 
avg_mrq_latency = 4 
avg_icnt2sh_latency = 13 
mrq_lat_table:66 	36 	0 	36 	4 	0 	0 	0 	0 	0 	0 	0 	0 	0 	0 	0 	0 	0 	0 	0 	0 	0 	0 	0 	0 	0 	0 	0 	0 	0 	0 	0 	
dq_lat_table:0 	0 	0 	0 	0 	0 	0 	0 	0 	0 	0 	0 	0 	0 	0 	0 	0 	0 	0 	0 	0 	0 	0 	0 	0 	0 	0 	0 	0 	0 	0 	0 	
mf_lat_table:0 	0 	0 	0 	0 	0 	0 	679 	2 	0 	0 	0 	0 	0 	0 	0 	0 	0 	0 	0 	0 	0 	0 	0 	0 	0 	0 	0 	0 	0 	0 	0 	
icnt2mem_lat_table:0 	0 	104 	4 	0 	207 	0 	0 	0 	0 	0 	0 	0 	0 	0 	0 	0 	0 	0 	0 	0 	0 	0 	0 	
[...]
dram[3]:     none      none      none      none      none      none      none      none      none      none      none      none      none      none      none      none  
dram[4]:     none      none      none      none      none      none      none      none      none      none      none      none      none      none      none      none  
dram[5]:     none      none      none      none      none      none      none      none      none      none      none      none      none      none      none      none  
maximum mf latency per bank:
dram[0]:        385       356       331       321       241       215       135       135       136       135       428       356       480       339       450       368
dram[1]:        460       301       388       279       347       215       135       135       135       138       278       501       501       483       487       385
dram[2]:        343       400       294       344       210       243       135       135       135       138       343       426       330       478       366       451
dram[3]:        329       457       275       387       207       361       135       135       136       135       486       263       477       486       384       480
dram[4]:        400       363       347       325       235       212       141       135       137       135       428       363       470       345       459       363
dram[5]:        479       303       402       275       367       207       135       135       135       135       271       507       507       487       500       386
Memory Partition 0: 
Cache L2_bank_000:
MSHR contents

Cache L2_bank_001:
MSHR contents

In Dram Latency Queue (total = 0): 
DRAM[0]: 16 bks, busW=4 BL=8 CL=12, tRRD=6 tCCD=2, tRCD=12 tRAS=28 tRP=12 tRC=40
n_cmd=589125 n_nop=589065 n_act=5 n_pre=2 n_ref_event=94204993244752 n_req=53 n_rd=53 n_rd_L2_A=0 n_write=0 n_wr_bk=0 bw_util=0.0001799
n_activity=413 dram_eff=0.2567
bk0: 26a 589029i bk1: 24a 589076i bk2: 0a 589122i bk3: 0a 589123i bk4: 0a 589123i bk5: 0a 589125i bk6: 0a 589125i bk7: 0a 589125i bk8: 0a 589125i bk9: 0a 589125i bk10: 3a 589109i bk11: 0a 589124i bk12: 0a 589125i bk13: 0a 589126i bk14: 0a 589126i bk15: 0a 589128i 

------------------------------------------------------------------------

Row_Buffer_Locality = 0.924528
Row_Buffer_Locality_read = 0.924528
Row_Buffer_Locality_write = -nan
Bank_Level_Parallism = 1.000000
Bank_Level_Parallism_Col = 0.673440
Bank_Level_Parallism_Ready = 1.000000
write_to_read_ratio_blp_rw_average = 0.000000
GrpLevelPara = 0.000000 

BW Util details:
bwutil = 0.000180 
total_CMD = 589125 
util_bw = 106 
Wasted_Col = 99 
Wasted_Row = 24 
Idle = 588896 

BW Util Bottlenecks: 
RCDc_limit = 60 
RCDWRc_limit = 0 
WTRc_limit = 0 
RTWc_limit = 0 
CCDLc_limit = 39 
rwq = 0 
CCDLc_limit_alone = 39 
WTRc_limit_alone = 0 
RTWc_limit_alone = 0 

Commands details: 
total_CMD = 589125 
n_nop = 589065 
Read = 53 
Write = 0 
L2_Alloc = 0 
L2_WB = 0 
n_act = 5 
n_pre = 2 
n_ref = 94204993244752 
n_req = 53 
total_req = 53 

Dual Bus Interface Util: 
issued_total_row = 7 
issued_total_col = 53 
Row_Bus_Util =  0.000012 
CoL_Bus_Util = 0.000090 
Either_Row_CoL_Bus_Util = 0.000102 
Issued_on_Two_Bus_Simul_Util = 0.000000 
issued_two_Eff = 0.000000 
queue_avg = 0.000412 


dram_util_bins: 0 0 0 0 0 0 0 0 0 0
dram_eff_bins: 0 0 0 0 0 0 0 0 0 0
mrqq: max=3 avg=0.000412476
Memory Partition 1: 
Cache L2_bank_002:
MSHR contents

Cache L2_bank_003:
MSHR contents

In Dram Latency Queue (total = 0): 
DRAM[1]: 16 bks, busW=4 BL=8 CL=12, tRRD=6 tCCD=2, tRCD=12 tRAS=28 tRP=12 tRC=40
n_cmd=589125 n_nop=589075 n_act=2 n_pre=0 n_ref_event=0 n_req=48 n_rd=48 n_rd_L2_A=0 n_write=0 n_wr_bk=0 bw_util=0.000163
n_activity=290 dram_eff=0.331
bk0: 24a 589081i bk1: 24a 589080i bk2: 0a 589124i bk3: 0a 589124i bk4: 0a 589124i bk5: 0a 589124i bk6: 0a 589124i bk7: 0a 589124i bk8: 0a 589124i bk9: 0a 589125i bk10: 0a 589125i bk11: 0a 589126i bk12: 0a 589126i bk13: 0a 589126i bk14: 0a 589126i bk15: 0a 589126i 

------------------------------------------------------------------------

Row_Buffer_Locality = 0.958333
Row_Buffer_Locality_read = 0.958333
Row_Buffer_Locality_write = -nan
Bank_Level_Parallism = 1.000000
Bank_Level_Parallism_Col = 1.004557
Bank_Level_Parallism_Ready = 1.000000
write_to_read_ratio_blp_rw_average = 0.000000
GrpLevelPara = 0.000000 

BW Util details:
bwutil = 0.000163 
total_CMD = 589125 
util_bw = 96 
Wasted_Col = 60 
Wasted_Row = 0 
Idle = 588969 

BW Util Bottlenecks: 
RCDc_limit = 24 
RCDWRc_limit = 0 
WTRc_limit = 0 
RTWc_limit = 0 
CCDLc_limit = 36 
rwq = 0 
CCDLc_limit_alone = 36 
WTRc_limit_alone = 0 
RTWc_limit_alone = 0 

Commands details: 
total_CMD = 589125 
n_nop = 589075 
Read = 48 
Write = 0 
L2_Alloc = 0 
L2_WB = 0 
n_act = 2 
n_pre = 0 
n_ref = 0 
n_req = 48 
total_req = 48 

Dual Bus Interface Util: 
issued_total_row = 2 
issued_total_col = 48 
Row_Bus_Util =  0.000003 
CoL_Bus_Util = 0.000081 
Either_Row_CoL_Bus_Util = 0.000085 
Issued_on_Two_Bus_Simul_Util = 0.000000 
issued_two_Eff = 0.000000 
queue_avg = 0.000204 


dram_util_bins: 0 0 0 0 0 0 0 0 0 0
dram_eff_bins: 0 0 0 0 0 0 0 0 0 0
mrqq: max=3 avg=0.000203692
Memory Partition 2: 
Cache L2_bank_004:
MSHR contents

Cache L2_bank_005:
MSHR contents

In Dram Latency Queue (total = 0): 
DRAM[2]: 16 bks, busW=4 BL=8 CL=12, tRRD=6 tCCD=2, tRCD=12 tRAS=28 tRP=12 tRC=40
n_cmd=589125 n_nop=589075 n_act=2 n_pre=0 n_ref_event=0 n_req=48 n_rd=48 n_rd_L2_A=0 n_write=0 n_wr_bk=0 bw_util=0.000163
n_activity=290 dram_eff=0.331
bk0: 24a 589081i bk1: 24a 589079i bk2: 0a 589124i bk3: 0a 589124i bk4: 0a 589124i bk5: 0a 589124i bk6: 0a 589124i bk7: 0a 589124i bk8: 0a 589124i bk9: 0a 589125i bk10: 0a 589125i bk11: 0a 589126i bk12: 0a 589126i bk13: 0a 589126i bk14: 0a 589126i bk15: 0a 589126i 

------------------------------------------------------------------------

Row_Buffer_Locality = 0.958333
Row_Buffer_Locality_read = 0.958333
Row_Buffer_Locality_write = -nan
Bank_Level_Parallism = 1.000000
Bank_Level_Parallism_Col = 1.004513
Bank_Level_Parallism_Ready = 1.000000
write_to_read_ratio_blp_rw_average = 0.000000
GrpLevelPara = 0.000000 

BW Util details:
bwutil = 0.000163 
total_CMD = 589125 
util_bw = 96 
Wasted_Col = 60 
Wasted_Row = 0 
Idle = 588969 

BW Util Bottlenecks: 
RCDc_limit = 24 
RCDWRc_limit = 0 
WTRc_limit = 0 
RTWc_limit = 0 
CCDLc_limit = 36 
rwq = 0 
CCDLc_limit_alone = 36 
WTRc_limit_alone = 0 
RTWc_limit_alone = 0 

Commands details: 
total_CMD = 589125 
n_nop = 589075 
Read = 48 
Write = 0 
L2_Alloc = 0 
L2_WB = 0 
n_act = 2 
n_pre = 0 
n_ref = 0 
n_req = 48 
total_req = 48 

Dual Bus Interface Util: 
issued_total_row = 2 
issued_total_col = 48 
Row_Bus_Util =  0.000003 
CoL_Bus_Util = 0.000081 
Either_Row_CoL_Bus_Util = 0.000085 
Issued_on_Two_Bus_Simul_Util = 0.000000 
issued_two_Eff = 0.000000 
queue_avg = 0.000210 


dram_util_bins: 0 0 0 0 0 0 0 0 0 0
dram_eff_bins: 0 0 0 0 0 0 0 0 0 0
mrqq: max=3 avg=0.000210482
Memory Partition 3: 
Cache L2_bank_006:
MSHR contents

Cache L2_bank_007:
MSHR contents

In Dram Latency Queue (total = 0): 
DRAM[3]: 16 bks, busW=4 BL=8 CL=12, tRRD=6 tCCD=2, tRCD=12 tRAS=28 tRP=12 tRC=40
n_cmd=589125 n_nop=589075 n_act=2 n_pre=0 n_ref_event=0 n_req=48 n_rd=48 n_rd_L2_A=0 n_write=0 n_wr_bk=0 bw_util=0.000163
n_activity=290 dram_eff=0.331
bk0: 24a 589081i bk1: 24a 589077i bk2: 0a 589124i bk3: 0a 589124i bk4: 0a 589124i bk5: 0a 589124i bk6: 0a 589124i bk7: 0a 589124i bk8: 0a 589124i bk9: 0a 589125i bk10: 0a 589125i bk11: 0a 589126i bk12: 0a 589126i bk13: 0a 589126i bk14: 0a 589126i bk15: 0a 589126i 

------------------------------------------------------------------------

Row_Buffer_Locality = 0.958333
Row_Buffer_Locality_read = 0.958333
Row_Buffer_Locality_write = -nan
Bank_Level_Parallism = 1.000000
Bank_Level_Parallism_Col = 1.000000
Bank_Level_Parallism_Ready = 1.000000
write_to_read_ratio_blp_rw_average = 0.000000
GrpLevelPara = 1.000000 

BW Util details:
bwutil = 0.000163 
total_CMD = 589125 
util_bw = 96 
Wasted_Col = 60 
Wasted_Row = 0 
Idle = 588969 

BW Util Bottlenecks: 
RCDc_limit = 24 
RCDWRc_limit = 0 
WTRc_limit = 0 
RTWc_limit = 0 
CCDLc_limit = 36 
rwq = 0 
CCDLc_limit_alone = 36 
WTRc_limit_alone = 0 
RTWc_limit_alone = 0 

Commands details: 
total_CMD = 589125 
n_nop = 589075 
Read = 48 
Write = 0 
L2_Alloc = 0 
L2_WB = 0 
n_act = 2 
n_pre = 0 
n_ref = 0 
n_req = 48 
total_req = 48 

Dual Bus Interface Util: 
issued_total_row = 2 
issued_total_col = 48 
Row_Bus_Util =  0.000003 
CoL_Bus_Util = 0.000081 
Either_Row_CoL_Bus_Util = 0.000085 
Issued_on_Two_Bus_Simul_Util = 0.000000 
issued_two_Eff = 0.000000 
queue_avg = 0.000216 


dram_util_bins: 0 0 0 0 0 0 0 0 0 0
dram_eff_bins: 0 0 0 0 0 0 0 0 0 0
mrqq: max=3 avg=0.000215574
Memory Partition 4: 
Cache L2_bank_008:
MSHR contents

Cache L2_bank_009:
MSHR contents

In Dram Latency Queue (total = 0): 
DRAM[4]: 16 bks, busW=4 BL=8 CL=12, tRRD=6 tCCD=2, tRCD=12 tRAS=28 tRP=12 tRC=40
n_cmd=589125 n_nop=589079 n_act=2 n_pre=0 n_ref_event=4565658604079112714 n_req=44 n_rd=44 n_rd_L2_A=0 n_write=0 n_wr_bk=0 bw_util=0.0001494
n_activity=269 dram_eff=0.3271
bk0: 24a 589079i bk1: 20a 589085i bk2: 0a 589124i bk3: 0a 589124i bk4: 0a 589124i bk5: 0a 589124i bk6: 0a 589124i bk7: 0a 589124i bk8: 0a 589124i bk9: 0a 589125i bk10: 0a 589125i bk11: 0a 589126i bk12: 0a 589126i bk13: 0a 589126i bk14: 0a 589126i bk15: 0a 589126i 

------------------------------------------------------------------------

Row_Buffer_Locality = 0.954545
Row_Buffer_Locality_read = 0.954545
Row_Buffer_Locality_write = -nan
Bank_Level_Parallism = 1.000000
Bank_Level_Parallism_Col = 1.000000
Bank_Level_Parallism_Ready = 1.000000
write_to_read_ratio_blp_rw_average = 0.000000
GrpLevelPara = 1.000000 

BW Util details:
bwutil = 0.000149 
total_CMD = 589125 
util_bw = 88 
Wasted_Col = 57 
Wasted_Row = 0 
Idle = 588980 

BW Util Bottlenecks: 
RCDc_limit = 24 
RCDWRc_limit = 0 
WTRc_limit = 0 
RTWc_limit = 0 
CCDLc_limit = 33 
rwq = 0 
CCDLc_limit_alone = 33 
WTRc_limit_alone = 0 
RTWc_limit_alone = 0 

Commands details: 
total_CMD = 589125 
n_nop = 589079 
Read = 44 
Write = 0 
L2_Alloc = 0 
L2_WB = 0 
n_act = 2 
n_pre = 0 
n_ref = 4565658604079112714 
n_req = 44 
total_req = 44 

Dual Bus Interface Util: 
issued_total_row = 2 
issued_total_col = 44 
Row_Bus_Util =  0.000003 
CoL_Bus_Util = 0.000075 
Either_Row_CoL_Bus_Util = 0.000078 
Issued_on_Two_Bus_Simul_Util = 0.000000 
issued_two_Eff = 0.000000 
queue_avg = 0.000205 


dram_util_bins: 0 0 0 0 0 0 0 0 0 0
dram_eff_bins: 0 0 0 0 0 0 0 0 0 0
mrqq: max=3 avg=0.000205389
Memory Partition 5: 
Cache L2_bank_010:
MSHR contents

Cache L2_bank_011:
MSHR contents

In Dram Latency Queue (total = 0): 
DRAM[5]: 16 bks, busW=4 BL=8 CL=12, tRRD=6 tCCD=2, tRCD=12 tRAS=28 tRP=12 tRC=40
n_cmd=589125 n_nop=589083 n_act=2 n_pre=0 n_ref_event=0 n_req=40 n_rd=40 n_rd_L2_A=0 n_write=0 n_wr_bk=0 bw_util=0.0001358
n_activity=248 dram_eff=0.3226
bk0: 24a 589078i bk1: 16a 589091i bk2: 0a 589124i bk3: 0a 589124i bk4: 0a 589124i bk5: 0a 589124i bk6: 0a 589124i bk7: 0a 589124i bk8: 0a 589124i bk9: 0a 589125i bk10: 0a 589125i bk11: 0a 589126i bk12: 0a 589126i bk13: 0a 589126i bk14: 0a 589126i bk15: 0a 589126i 

------------------------------------------------------------------------

Row_Buffer_Locality = 0.950000
Row_Buffer_Locality_read = 0.950000
Row_Buffer_Locality_write = -nan
Bank_Level_Parallism = 1.000000
Bank_Level_Parallism_Col = 0.000000
Bank_Level_Parallism_Ready = 1.000000
write_to_read_ratio_blp_rw_average = 0.000000
GrpLevelPara = 0.000000 

BW Util details:
bwutil = 0.000136 
total_CMD = 589125 
util_bw = 80 
Wasted_Col = 54 
Wasted_Row = 0 
Idle = 588991 

BW Util Bottlenecks: 
RCDc_limit = 24 
RCDWRc_limit = 0 
WTRc_limit = 0 
RTWc_limit = 0 
CCDLc_limit = 30 
rwq = 0 
CCDLc_limit_alone = 30 
WTRc_limit_alone = 0 
RTWc_limit_alone = 0 

Commands details: 
total_CMD = 589125 
n_nop = 589083 
Read = 40 
Write = 0 
L2_Alloc = 0 
L2_WB = 0 
n_act = 2 
n_pre = 0 
n_ref = 0 
n_req = 40 
total_req = 40 

Dual Bus Interface Util: 
issued_total_row = 2 
issued_total_col = 40 
Row_Bus_Util =  0.000003 
CoL_Bus_Util = 0.000068 
Either_Row_CoL_Bus_Util = 0.000071 
Issued_on_Two_Bus_Simul_Util = 0.000000 
issued_two_Eff = 0.000000 
queue_avg = 0.000197 


dram_util_bins: 0 0 0 0 0 0 0 0 0 0
dram_eff_bins: 0 0 0 0 0 0 0 0 0 0
mrqq: max=3 avg=0.000196902

========= L2 cache stats =========
L2_cache_bank[0]: Access = 7786, Miss = 29, Miss_rate = 0.004, Pending_hits = 24, Reservation_fails = 191
L2_cache_bank[1]: Access = 7674, Miss = 24, Miss_rate = 0.003, Pending_hits = 48, Reservation_fails = 383
L2_cache_bank[2]: Access = 7744, Miss = 24, Miss_rate = 0.003, Pending_hits = 24, Reservation_fails = 192
L2_cache_bank[3]: Access = 7674, Miss = 24, Miss_rate = 0.003, Pending_hits = 48, Reservation_fails = 382
L2_cache_bank[4]: Access = 7742, Miss = 24, Miss_rate = 0.003, Pending_hits = 24, Reservation_fails = 191
L2_cache_bank[5]: Access = 7674, Miss = 24, Miss_rate = 0.003, Pending_hits = 40, Reservation_fails = 250
L2_cache_bank[6]: Access = 7734, Miss = 24, Miss_rate = 0.003, Pending_hits = 24, Reservation_fails = 193
L2_cache_bank[7]: Access = 7663, Miss = 24, Miss_rate = 0.003, Pending_hits = 48, Reservation_fails = 384
L2_cache_bank[8]: Access = 7770, Miss = 24, Miss_rate = 0.003, Pending_hits = 24, Reservation_fails = 192
L2_cache_bank[9]: Access = 7176, Miss = 20, Miss_rate = 0.003, Pending_hits = 36, Reservation_fails = 284
L2_cache_bank[10]: Access = 8145, Miss = 24, Miss_rate = 0.003, Pending_hits = 36, Reservation_fails = 291
L2_cache_bank[11]: Access = 6704, Miss = 16, Miss_rate = 0.002, Pending_hits = 24, Reservation_fails = 193
L2_total_cache_accesses = 91486
L2_total_cache_misses = 281
L2_total_cache_miss_rate = 0.0031
L2_total_cache_pending_hits = 400
L2_total_cache_reservation_fails = 3126
L2_total_cache_breakdown:
	L2_cache_stats_breakdown[GLOBAL_ACC_R][HIT] = 41989
	L2_cache_stats_breakdown[GLOBAL_ACC_R][HIT_RESERVED] = 0
	L2_cache_stats_breakdown[GLOBAL_ACC_R][MISS] = 0
	L2_cache_stats_breakdown[GLOBAL_ACC_R][RESERVATION_FAIL] = 0
	L2_cache_stats_breakdown[GLOBAL_ACC_R][SECTOR_MISS] = 3
	L2_cache_stats_breakdown[LOCAL_ACC_R][HIT] = 0
	L2_cache_stats_breakdown[LOCAL_ACC_R][HIT_RESERVED] = 0
	L2_cache_stats_breakdown[LOCAL_ACC_R][MISS] = 0
	L2_cache_stats_breakdown[LOCAL_ACC_R][RESERVATION_FAIL] = 0
	L2_cache_stats_breakdown[LOCAL_ACC_R][SECTOR_MISS] = 0
	L2_cache_stats_breakdown[CONST_ACC_R][HIT] = 28
	L2_cache_stats_breakdown[CONST_ACC_R][HIT_RESERVED] = 0
	L2_cache_stats_breakdown[CONST_ACC_R][MISS] = 1
	L2_cache_stats_breakdown[CONST_ACC_R][RESERVATION_FAIL] = 0
	L2_cache_stats_breakdown[CONST_ACC_R][SECTOR_MISS] = 1
	L2_cache_stats_breakdown[TEXTURE_ACC_R][HIT] = 0
	L2_cache_stats_breakdown[TEXTURE_ACC_R][HIT_RESERVED] = 0
	L2_cache_stats_breakdown[TEXTURE_ACC_R][MISS] = 0
	L2_cache_stats_breakdown[TEXTURE_ACC_R][RESERVATION_FAIL] = 0
	L2_cache_stats_breakdown[TEXTURE_ACC_R][SECTOR_MISS] = 0
	L2_cache_stats_breakdown[GLOBAL_ACC_W][HIT] = 13824
	L2_cache_stats_breakdown[GLOBAL_ACC_W][HIT_RESERVED] = 0
	L2_cache_stats_breakdown[GLOBAL_ACC_W][MISS] = 0
	L2_cache_stats_breakdown[GLOBAL_ACC_W][RESERVATION_FAIL] = 0
	L2_cache_stats_breakdown[GLOBAL_ACC_W][SECTOR_MISS] = 0
	L2_cache_stats_breakdown[LOCAL_ACC_W][HIT] = 0
	L2_cache_stats_breakdown[LOCAL_ACC_W][HIT_RESERVED] = 0
	L2_cache_stats_breakdown[LOCAL_ACC_W][MISS] = 0
	L2_cache_stats_breakdown[LOCAL_ACC_W][RESERVATION_FAIL] = 0
	L2_cache_stats_breakdown[LOCAL_ACC_W][SECTOR_MISS] = 0
	L2_cache_stats_breakdown[L1_WRBK_ACC][HIT] = 0
	L2_cache_stats_breakdown[L1_WRBK_ACC][HIT_RESERVED] = 0
	L2_cache_stats_breakdown[L1_WRBK_ACC][MISS] = 0
	L2_cache_stats_breakdown[L1_WRBK_ACC][RESERVATION_FAIL] = 0
	L2_cache_stats_breakdown[L1_WRBK_ACC][SECTOR_MISS] = 0
	L2_cache_stats_breakdown[L2_WRBK_ACC][HIT] = 0
	L2_cache_stats_breakdown[L2_WRBK_ACC][HIT_RESERVED] = 0
	L2_cache_stats_breakdown[L2_WRBK_ACC][MISS] = 0
	L2_cache_stats_breakdown[L2_WRBK_ACC][RESERVATION_FAIL] = 0
	L2_cache_stats_breakdown[L2_WRBK_ACC][SECTOR_MISS] = 0
	L2_cache_stats_breakdown[INST_ACC_R][HIT] = 34964
	L2_cache_stats_breakdown[INST_ACC_R][HIT_RESERVED] = 400
	L2_cache_stats_breakdown[INST_ACC_R][MISS] = 69
	L2_cache_stats_breakdown[INST_ACC_R][RESERVATION_FAIL] = 3126
	L2_cache_stats_breakdown[INST_ACC_R][SECTOR_MISS] = 207
	L2_cache_stats_breakdown[L1_WR_ALLOC_R][HIT] = 0
	L2_cache_stats_breakdown[L1_WR_ALLOC_R][HIT_RESERVED] = 0
	L2_cache_stats_breakdown[L1_WR_ALLOC_R][MISS] = 0
	L2_cache_stats_breakdown[L1_WR_ALLOC_R][RESERVATION_FAIL] = 0
	L2_cache_stats_breakdown[L1_WR_ALLOC_R][SECTOR_MISS] = 0
	L2_cache_stats_breakdown[L2_WR_ALLOC_R][HIT] = 0
	L2_cache_stats_breakdown[L2_WR_ALLOC_R][HIT_RESERVED] = 0
	L2_cache_stats_breakdown[L2_WR_ALLOC_R][MISS] = 0
	L2_cache_stats_breakdown[L2_WR_ALLOC_R][RESERVATION_FAIL] = 0
	L2_cache_stats_breakdown[L2_WR_ALLOC_R][SECTOR_MISS] = 0
	L2_cache_stats_breakdown[GLOBAL_ACC_R][TOTAL_ACCESS] = 41992
	L2_cache_stats_breakdown[CONST_ACC_R][TOTAL_ACCESS] = 30
	L2_cache_stats_breakdown[GLOBAL_ACC_W][TOTAL_ACCESS] = 13824
	L2_cache_stats_breakdown[INST_ACC_R][TOTAL_ACCESS] = 35640
L2_total_cache_reservation_fail_breakdown:
	L2_cache_stats_fail_breakdown[INST_ACC_R][MSHR_MERGE_ENRTY_FAIL] = 3126
L2_cache_data_port_util = 0.017
L2_cache_fill_port_util = 0.000

icnt_total_pkts_mem_to_simt=91486
icnt_total_pkts_simt_to_mem=33247
LD_mem_lat_dist  0 0 0 0 0 0 0 0 0 0 0 0 0 0 0 0 0 0 0 0 0 0 0 0 0 0 0
ST_mem_lat_dist  0 0 0 0 0 0 0 0 0 0 0 0 0 0 0 0 0 0 0 0 0 0 0 0 0 0 0
----------------------------Interconnect-DETAILS--------------------------------
Class 0:
Packet latency average = 8.1773
	minimum = 5
	maximum = 45
Network latency average = 8.1773
	minimum = 5
	maximum = 45
Slowest packet = 116695
Flit latency average = 7.78373
	minimum = 5
	maximum = 45
Slowest flit = 124459
Fragmentation average = 0
	minimum = 0
	maximum = 0
Injected packet rate average = 0.00111293
	minimum = 0 (at node 1)
	maximum = 0.00610926 (at node 0)
Accepted packet rate average = 0.00111293
	minimum = 0 (at node 1)
	maximum = 0.0239398 (at node 0)
Injected flit rate average = 0.00122869
	minimum = 0 (at node 1)
	maximum = 0.00923492 (at node 0)
Accepted flit rate average= 0.00122869
	minimum = 0 (at node 1)
	maximum = 0.0239398 (at node 0)
Injected packet length average = 1.10402
Accepted packet length average = 1.10402
Total in-flight flits = 0 (0 measured)
====== Overall Traffic Statistics ======
====== Traffic class 0 ======
Packet latency average = 10.9833 (31 samples)
	minimum = 5 (31 samples)
	maximum = 82.2581 (31 samples)
Network latency average = 10.8876 (31 samples)
	minimum = 5 (31 samples)
	maximum = 79.9677 (31 samples)
Flit latency average = 10.474 (31 samples)
	minimum = 5 (31 samples)
	maximum = 79.9677 (31 samples)
Fragmentation average = 0 (31 samples)
	minimum = 0 (31 samples)
	maximum = 0 (31 samples)
Injected packet rate average = 0.00973736 (31 samples)
	minimum = 0.000607283 (31 samples)
	maximum = 0.0346863 (31 samples)
Accepted packet rate average = 0.00973736 (31 samples)
	minimum = 0.000191155 (31 samples)
	maximum = 0.0254952 (31 samples)
Injected flit rate average = 0.0103858 (31 samples)
	minimum = 0.00076462 (31 samples)
	maximum = 0.0349355 (31 samples)
Accepted flit rate average = 0.0103858 (31 samples)
	minimum = 0.000191155 (31 samples)
	maximum = 0.0262133 (31 samples)
Injected packet size average = 1.06659 (31 samples)
Accepted packet size average = 1.06659 (31 samples)
Hops average = 1 (31 samples)
----------------------------END-of-Interconnect-DETAILS-------------------------


gpgpu_simulation_time = 0 days, 0 hrs, 0 min, 49 sec (49 sec)
gpgpu_simulation_rate = 31814 (inst/sec)
gpgpu_simulation_rate = 9108 (cycle/sec)
gpgpu_silicon_slowdown = 76855x
GPGPU-Sim: *** exit detected ***
