

        *** GPGPU-Sim Simulator Version 4.0.0  [build gpgpu-sim_git-commit-90ec3399763d7c8512cfe7dc193473086c38ca38_modified_0.0] ***


GPGPU-Sim PTX: simulation mode 0 (can change with PTX_SIM_MODE_FUNC environment variable:
               1=functional simulation only, 0=detailed performance simulator)
GPGPU-Sim PTX: overriding embedded ptx with ptx file (PTX_SIM_USE_PTX_FILE is set)
GPGPU-Sim: Configuration options:

-save_embedded_ptx                      0 # saves ptx files embedded in binary as <n>.ptx
-keep                                   0 # keep intermediate files created by GPGPU-Sim when interfacing with external programs
-gpgpu_ptx_save_converted_ptxplus                    0 # Saved converted ptxplus to a file
-gpgpu_occupancy_sm_number                   62 # The SM number to pass to ptxas when getting register usage for computing GPU occupancy. This parameter is required in the config.
-ptx_opcode_latency_int      4,13,4,5,145,32 # Opcode latencies for integers <ADD,MAX,MUL,MAD,DIV,SHFL>Default 1,1,19,25,145,32
-ptx_opcode_latency_fp          4,13,4,5,39 # Opcode latencies for single precision floating points <ADD,MAX,MUL,MAD,DIV>Default 1,1,1,1,30
-ptx_opcode_latency_dp         8,19,8,8,330 # Opcode latencies for double precision floating points <ADD,MAX,MUL,MAD,DIV>Default 8,8,8,8,335
-ptx_opcode_latency_sfu                  200 # Opcode latencies for SFU instructionsDefault 8
-ptx_opcode_latency_tesnor                   64 # Opcode latencies for Tensor instructionsDefault 64
-ptx_opcode_initiation_int          1,1,1,1,4,4 # Opcode initiation intervals for integers <ADD,MAX,MUL,MAD,DIV,SHFL>Default 1,1,4,4,32,4
-ptx_opcode_initiation_fp            1,2,1,1,4 # Opcode initiation intervals for single precision floating points <ADD,MAX,MUL,MAD,DIV>Default 1,1,1,1,5
-ptx_opcode_initiation_dp          2,8,8,8,130 # Opcode initiation intervals for double precision floating points <ADD,MAX,MUL,MAD,DIV>Default 8,8,8,8,130
-ptx_opcode_initiation_sfu                    2 # Opcode initiation intervals for sfu instructionsDefault 8
-ptx_opcode_initiation_tensor                   64 # Opcode initiation intervals for tensor instructionsDefault 64
-cdp_latency         7200,8000,100,12000,1600 # CDP API latency <cudaStreamCreateWithFlags, cudaGetParameterBufferV2_init_perWarp, cudaGetParameterBufferV2_perKernel, cudaLaunchDeviceV2_init_perWarp, cudaLaunchDevicV2_perKernel>Default 7200,8000,100,12000,1600
-network_mode                           1 # Interconnection network mode
-inter_config_file   config_kepler_islip.icnt # Interconnection network config file
-icnt_in_buffer_limit                   64 # in_buffer_limit
-icnt_out_buffer_limit                   64 # out_buffer_limit
-icnt_subnets                           2 # subnets
-icnt_arbiter_algo                      1 # arbiter_algo
-icnt_verbose                           0 # inct_verbose
-icnt_grant_cycles                      1 # grant_cycles
-gpgpu_ptx_use_cuobjdump                    1 # Use cuobjdump to extract ptx and sass from binaries
-gpgpu_experimental_lib_support                    0 # Try to extract code from cuda libraries [Broken because of unknown cudaGetExportTable]
-checkpoint_option                      0 #  checkpointing flag (0 = no checkpoint)
-checkpoint_kernel                      1 #  checkpointing during execution of which kernel (1- 1st kernel)
-checkpoint_CTA                         0 #  checkpointing after # of CTA (< less than total CTA)
-resume_option                          0 #  resume flag (0 = no resume)
-resume_kernel                          0 #  Resume from which kernel (1= 1st kernel)
-resume_CTA                             0 #  resume from which CTA 
-checkpoint_CTA_t                       0 #  resume from which CTA 
-checkpoint_insn_Y                      0 #  resume from which CTA 
-gpgpu_ptx_convert_to_ptxplus                    0 # Convert SASS (native ISA) to ptxplus and run ptxplus
-gpgpu_ptx_force_max_capability                   35 # Force maximum compute capability
-gpgpu_ptx_inst_debug_to_file                    0 # Dump executed instructions' debug information to file
-gpgpu_ptx_inst_debug_file       inst_debug.txt # Executed instructions' debug output file
-gpgpu_ptx_inst_debug_thread_uid                    1 # Thread UID for executed instructions' debug output
-gpgpu_simd_model                       1 # 1 = post-dominator
-gpgpu_shader_core_pipeline              2048:32 # shader core pipeline config, i.e., {<nthread>:<warpsize>}
-gpgpu_tex_cache:l1  N:16:128:24,L:R:m:N:L,T:128:4,128:2 # per-shader L1 texture cache  (READ-ONLY) config  {<nsets>:<bsize>:<assoc>,<rep>:<wr>:<alloc>:<wr_alloc>,<mshr>:<N>:<merge>,<mq>:<rf>}
-gpgpu_const_cache:l1 N:128:64:2,L:R:f:N:L,S:2:64,4 # per-shader L1 constant memory cache  (READ-ONLY) config  {<nsets>:<bsize>:<assoc>,<rep>:<wr>:<alloc>:<wr_alloc>,<mshr>:<N>:<merge>,<mq>} 
-gpgpu_cache:il1     N:8:128:4,L:R:f:N:L,S:2:48,4 # shader L1 instruction cache config  {<nsets>:<bsize>:<assoc>,<rep>:<wr>:<alloc>:<wr_alloc>,<mshr>:<N>:<merge>,<mq>} 
-gpgpu_cache:dl1     S:4:128:32,L:L:s:N:L,A:256:8,16:0,32 # per-shader L1 data cache config  {<nsets>:<bsize>:<assoc>,<rep>:<wr>:<alloc>:<wr_alloc>,<mshr>:<N>:<merge>,<mq> | none}
-gpgpu_l1_banks                         1 # The number of L1 cache banks
-gpgpu_l1_banks_byte_interleaving                   32 # l1 banks byte interleaving granularity
-gpgpu_l1_banks_hashing_function                    0 # l1 banks hashing function
-gpgpu_l1_latency                      82 # L1 Hit Latency
-gpgpu_smem_latency                     3 # smem Latency
-gpgpu_cache:dl1PrefL1 S:4:128:96,L:L:s:N:L,A:256:8,16:0,32 # per-shader L1 data cache config  {<nsets>:<bsize>:<assoc>,<rep>:<wr>:<alloc>:<wr_alloc>,<mshr>:<N>:<merge>,<mq> | none}
-gpgpu_cache:dl1PrefShared S:4:128:32,L:L:s:N:L,A:256:8,16:0,32 # per-shader L1 data cache config  {<nsets>:<bsize>:<assoc>,<rep>:<wr>:<alloc>:<wr_alloc>,<mshr>:<N>:<merge>,<mq> | none}
-gpgpu_gmem_skip_L1D                    1 # global memory access skip L1D cache (implements -Xptxas -dlcm=cg, default=no skip)
-gpgpu_perfect_mem                      0 # enable perfect memory mode (no cache miss)
-n_regfile_gating_group                    4 # group of lanes that should be read/written together)
-gpgpu_clock_gated_reg_file                    0 # enable clock gated reg file for power calculations
-gpgpu_clock_gated_lanes                    0 # enable clock gated lanes for power calculations
-gpgpu_shader_registers                65536 # Number of registers per shader core. Limits number of concurrent CTAs. (default 8192)
-gpgpu_registers_per_block                 8192 # Maximum number of registers per CTA. (default 8192)
-gpgpu_ignore_resources_limitation                    1 # gpgpu_ignore_resources_limitation (default 0)
-gpgpu_shader_cta                      16 # Maximum number of concurrent CTAs in shader (default 8)
-gpgpu_num_cta_barriers                   16 # Maximum number of named barriers per CTA (default 16)
-gpgpu_n_clusters                      14 # number of processing clusters
-gpgpu_n_cores_per_cluster                    1 # number of simd cores per cluster
-gpgpu_n_cluster_ejection_buffer_size                   32 # number of packets in ejection buffer
-gpgpu_n_ldst_response_buffer_size                    2 # number of response packets in ld/st unit ejection buffer
-gpgpu_shmem_per_block                49152 # Size of shared memory per thread block or CTA (default 48kB)
-gpgpu_shmem_size                   49152 # Size of shared memory per shader core (default 16kB)
-gpgpu_adaptive_cache_config                    0 # adaptive_cache_config
-gpgpu_shmem_sizeDefault                49152 # Size of shared memory per shader core (default 16kB)
-gpgpu_shmem_size_PrefL1                16384 # Size of shared memory per shader core (default 16kB)
-gpgpu_shmem_size_PrefShared                49152 # Size of shared memory per shader core (default 16kB)
-gpgpu_shmem_num_banks                   32 # Number of banks in the shared memory in each shader core (default 16)
-gpgpu_shmem_limited_broadcast                    0 # Limit shared memory to do one broadcast per cycle (default on)
-gpgpu_shmem_warp_parts                    1 # Number of portions a warp is divided into for shared memory bank conflict check 
-gpgpu_mem_unit_ports                    1 # The number of memory transactions allowed per core cycle
-gpgpu_shmem_warp_parts                    1 # Number of portions a warp is divided into for shared memory bank conflict check 
-gpgpu_warpdistro_shader                   -1 # Specify which shader core to collect the warp size distribution from
-gpgpu_warp_issue_shader                    0 # Specify which shader core to collect the warp issue distribution from
-gpgpu_local_mem_map                    1 # Mapping from local memory space address to simulated GPU physical address space (default = enabled)
-gpgpu_num_reg_banks                   16 # Number of register banks (default = 8)
-gpgpu_reg_bank_use_warp_id                    0 # Use warp ID in mapping registers to banks (default = off)
-gpgpu_sub_core_model                    0 # Sub Core Volta/Pascal model (default = off)
-gpgpu_enable_specialized_operand_collector                    1 # enable_specialized_operand_collector
-gpgpu_operand_collector_num_units_sp                   12 # number of collector units (default = 4)
-gpgpu_operand_collector_num_units_dp                    6 # number of collector units (default = 0)
-gpgpu_operand_collector_num_units_sfu                    6 # number of collector units (default = 4)
-gpgpu_operand_collector_num_units_int                    0 # number of collector units (default = 0)
-gpgpu_operand_collector_num_units_tensor_core                    4 # number of collector units (default = 4)
-gpgpu_operand_collector_num_units_mem                    8 # number of collector units (default = 2)
-gpgpu_operand_collector_num_units_gen                    0 # number of collector units (default = 0)
-gpgpu_operand_collector_num_in_ports_sp                    2 # number of collector unit in ports (default = 1)
-gpgpu_operand_collector_num_in_ports_dp                    1 # number of collector unit in ports (default = 0)
-gpgpu_operand_collector_num_in_ports_sfu                    2 # number of collector unit in ports (default = 1)
-gpgpu_operand_collector_num_in_ports_int                    0 # number of collector unit in ports (default = 0)
-gpgpu_operand_collector_num_in_ports_tensor_core                    1 # number of collector unit in ports (default = 1)
-gpgpu_operand_collector_num_in_ports_mem                    1 # number of collector unit in ports (default = 1)
-gpgpu_operand_collector_num_in_ports_gen                    0 # number of collector unit in ports (default = 0)
-gpgpu_operand_collector_num_out_ports_sp                    2 # number of collector unit in ports (default = 1)
-gpgpu_operand_collector_num_out_ports_dp                    1 # number of collector unit in ports (default = 0)
-gpgpu_operand_collector_num_out_ports_sfu                    2 # number of collector unit in ports (default = 1)
-gpgpu_operand_collector_num_out_ports_int                    0 # number of collector unit in ports (default = 0)
-gpgpu_operand_collector_num_out_ports_tensor_core                    1 # number of collector unit in ports (default = 1)
-gpgpu_operand_collector_num_out_ports_mem                    1 # number of collector unit in ports (default = 1)
-gpgpu_operand_collector_num_out_ports_gen                    0 # number of collector unit in ports (default = 0)
-gpgpu_coalesce_arch                   35 # Coalescing arch (GT200 = 13, Fermi = 20)
-gpgpu_num_sched_per_core                    4 # Number of warp schedulers per core
-gpgpu_max_insn_issue_per_warp                    2 # Max number of instructions that can be issued per warp in one cycle by scheduler (either 1 or 2)
-gpgpu_dual_issue_diff_exec_units                    0 # should dual issue use two different execution unit resources (Default = 1)
-gpgpu_simt_core_sim_order                    1 # Select the simulation order of cores in a cluster (0=Fix, 1=Round-Robin)
-gpgpu_pipeline_widths 6,4,0,2,1,6,4,0,2,1,12 # Pipeline widths ID_OC_SP,ID_OC_DP,ID_OC_INT,ID_OC_SFU,ID_OC_MEM,OC_EX_SP,OC_EX_DP,OC_EX_INT,OC_EX_SFU,OC_EX_MEM,EX_WB,ID_OC_TENSOR_CORE,OC_EX_TENSOR_CORE
-gpgpu_tensor_core_avail                    0 # Tensor Core Available (default=0)
-gpgpu_num_sp_units                     6 # Number of SP units (default=1)
-gpgpu_num_dp_units                     4 # Number of DP units (default=0)
-gpgpu_num_int_units                    0 # Number of INT units (default=0)
-gpgpu_num_sfu_units                    2 # Number of SF units (default=1)
-gpgpu_num_tensor_core_units                    0 # Number of tensor_core units (default=1)
-gpgpu_num_mem_units                    1 # Number if ldst units (default=1) WARNING: not hooked up to anything
-gpgpu_scheduler                      gto # Scheduler configuration: < lrr | gto | two_level_active > If two_level_active:<num_active_warps>:<inner_prioritization>:<outer_prioritization>For complete list of prioritization values see shader.h enum scheduler_prioritization_typeDefault: gto
-gpgpu_concurrent_kernel_sm                    0 # Support concurrent kernels on a SM (default = disabled)
-gpgpu_perfect_inst_const_cache                    0 # perfect inst and const cache mode, so all inst and const hits in the cache(default = disabled)
-gpgpu_inst_fetch_throughput                    8 # the number of fetched intruction per warp each cycle
-gpgpu_reg_file_port_throughput                    2 # the number ports of the register file
-specialized_unit_1         0,4,4,4,4,BRA # specialized unit config {<enabled>,<num_units>:<latency>:<initiation>,<ID_OC_SPEC>:<OC_EX_SPEC>,<NAME>}
-specialized_unit_2         0,4,4,4,4,BRA # specialized unit config {<enabled>,<num_units>:<latency>:<initiation>,<ID_OC_SPEC>:<OC_EX_SPEC>,<NAME>}
-specialized_unit_3         0,4,4,4,4,BRA # specialized unit config {<enabled>,<num_units>:<latency>:<initiation>,<ID_OC_SPEC>:<OC_EX_SPEC>,<NAME>}
-specialized_unit_4         0,4,4,4,4,BRA # specialized unit config {<enabled>,<num_units>:<latency>:<initiation>,<ID_OC_SPEC>:<OC_EX_SPEC>,<NAME>}
-specialized_unit_5         0,4,4,4,4,BRA # specialized unit config {<enabled>,<num_units>:<latency>:<initiation>,<ID_OC_SPEC>:<OC_EX_SPEC>,<NAME>}
-specialized_unit_6         0,4,4,4,4,BRA # specialized unit config {<enabled>,<num_units>:<latency>:<initiation>,<ID_OC_SPEC>:<OC_EX_SPEC>,<NAME>}
-specialized_unit_7         0,4,4,4,4,BRA # specialized unit config {<enabled>,<num_units>:<latency>:<initiation>,<ID_OC_SPEC>:<OC_EX_SPEC>,<NAME>}
-specialized_unit_8         0,4,4,4,4,BRA # specialized unit config {<enabled>,<num_units>:<latency>:<initiation>,<ID_OC_SPEC>:<OC_EX_SPEC>,<NAME>}
-gpgpu_perf_sim_memcpy                    1 # Fill the L2 cache on memcpy
-gpgpu_simple_dram_model                    0 # simple_dram_model with fixed latency and BW
-gpgpu_dram_scheduler                    1 # 0 = fifo, 1 = FR-FCFS (defaul)
-gpgpu_dram_partition_queues          32:32:32:32 # i2$:$2d:d2$:$2i
-l2_ideal                               0 # Use a ideal L2 cache that always hit
-gpgpu_cache:dl2     S:32:128:16,L:B:m:L:P,A:256:64,16:0,32 # unified banked L2 data cache config  {<nsets>:<bsize>:<assoc>,<rep>:<wr>:<alloc>:<wr_alloc>,<mshr>:<N>:<merge>,<mq>}
-gpgpu_cache:dl2_texture_only                    0 # L2 cache used for texture only
-gpgpu_n_mem                           12 # number of memory modules (e.g. memory controllers) in gpu
-gpgpu_n_sub_partition_per_mchannel                    2 # number of memory subpartition in each memory module
-gpgpu_n_mem_per_ctrlr                    1 # number of memory chips per memory controller
-gpgpu_memlatency_stat                   14 # track and display latency statistics 0x2 enables MC, 0x4 enables queue logs
-gpgpu_frfcfs_dram_sched_queue_size                   64 # 0 = unlimited (default); # entries per chip
-gpgpu_dram_return_queue_size                   64 # 0 = unlimited (default); # entries per chip
-gpgpu_dram_buswidth                    4 # default = 4 bytes (8 bytes per cycle at DDR)
-gpgpu_dram_burst_length                    8 # Burst length of each DRAM request (default = 4 data bus cycle)
-dram_data_command_freq_ratio                    4 # Frequency ratio between DRAM data bus and command bus (default = 2 times, i.e. DDR)
-gpgpu_dram_timing_opt nbk=16:CCD=2:RRD=8:RCD=16:RAS=37:RP=16:RC=52: CL=16:WL=6:CDLR=7:WR=16:nbkgrp=4:CCDL=4:RTPL=3 # DRAM timing parameters = {nbk:tCCD:tRRD:tRCD:tRAS:tRP:tRC:CL:WL:tCDLR:tWR:nbkgrp:tCCDL:tRTPL}
-gpgpu_l2_rop_latency                  120 # ROP queue latency (default 85)
-dram_latency                         100 # DRAM latency (default 30)
-dram_dual_bus_interface                    0 # dual_bus_interface (default = 0) 
-dram_bnk_indexing_policy                    0 # dram_bnk_indexing_policy (0 = normal indexing, 1 = Xoring with the higher bits) (Default = 0)
-dram_bnkgrp_indexing_policy                    1 # dram_bnkgrp_indexing_policy (0 = take higher bits, 1 = take lower bits) (Default = 0)
-dram_seperate_write_queue_enable                    0 # Seperate_Write_Queue_Enable
-dram_write_queue_size             32:28:16 # Write_Queue_Size
-dram_elimnate_rw_turnaround                    0 # elimnate_rw_turnaround i.e set tWTR and tRTW = 0
-icnt_flit_size                        40 # icnt_flit_size
-gpgpu_mem_addr_mapping dramid@8;00000000.00000000.00000000.00000000.0000RRRR.RRRRRRRR.RBBBCCCC.BCCSSSSS # mapping memory address to dram model {dramid@<start bit>;<memory address map>}
-gpgpu_mem_addr_test                    0 # run sweep test to check address mapping for aliased address
-gpgpu_mem_address_mask                    1 # 0 = old addressing mask, 1 = new addressing mask, 2 = new add. mask + flipped bank sel and chip sel bits
-gpgpu_memory_partition_indexing                    0 # 0 = no indexing, 1 = bitwise xoring, 2 = IPoly, 3 = custom indexing
-gpuwattch_xml_file         gpuwattch.xml # GPUWattch XML file
-power_simulation_enabled                    1 # Turn on power simulator (1=On, 0=Off)
-power_per_cycle_dump                    0 # Dump detailed power output each cycle
-power_trace_enabled                    0 # produce a file for the power trace (1=On, 0=Off)
-power_trace_zlevel                     6 # Compression level of the power trace output log (0=no comp, 9=highest)
-steady_power_levels_enabled                    0 # produce a file for the steady power levels (1=On, 0=Off)
-steady_state_definition                  8:4 # allowed deviation:number of samples
-gpgpu_max_cycle                        0 # terminates gpu simulation early (0 = no limit)
-gpgpu_max_insn                         0 # terminates gpu simulation early (0 = no limit)
-gpgpu_max_cta                          0 # terminates gpu simulation early (0 = no limit)
-gpgpu_max_completed_cta                    0 # terminates gpu simulation early (0 = no limit)
-gpgpu_runtime_stat                   500 # display runtime statistics such as dram utilization {<freq>:<flag>}
-liveness_message_freq                    1 # Minimum number of seconds between simulation liveness messages (0 = always print)
-gpgpu_compute_capability_major                    3 # Major compute capability version number
-gpgpu_compute_capability_minor                    5 # Minor compute capability version number
-gpgpu_flush_l1_cache                    1 # Flush L1 cache at the end of each kernel call
-gpgpu_flush_l2_cache                    0 # Flush L2 cache at the end of each kernel call
-gpgpu_deadlock_detect                    1 # Stop the simulation at deadlock (1=on (default), 0=off)
-gpgpu_ptx_instruction_classification                    0 # if enabled will classify ptx instruction types per kernel (Max 255 kernels now)
-gpgpu_ptx_sim_mode                     0 # Select between Performance (default) or Functional simulation (1)
-gpgpu_clock_domains 837.0:837.0:837.0:1502.0 # Clock Domain Frequencies in MhZ {<Core Clock>:<ICNT Clock>:<L2 Clock>:<DRAM Clock>}
-gpgpu_max_concurrent_kernel                    8 # maximum kernels that can run concurrently on GPU
-gpgpu_cflog_interval                    0 # Interval between each snapshot in control flow logger
-visualizer_enabled                     0 # Turn on visualizer output (1=On, 0=Off)
-visualizer_outputfile                 NULL # Specifies the output log file for visualizer
-visualizer_zlevel                      6 # Compression level of the visualizer output log (0=no comp, 9=highest)
-gpgpu_stack_size_limit                 1024 # GPU thread stack size
-gpgpu_heap_size_limit              8388608 # GPU malloc heap size 
-gpgpu_runtime_sync_depth_limit                    2 # GPU device runtime synchronize depth
-gpgpu_runtime_pending_launch_count_limit                 2048 # GPU device runtime pending launch count
-trace_enabled                          0 # Turn on traces
-trace_components                    none # comma seperated list of traces to enable. Complete list found in trace_streams.tup. Default none
-trace_sampling_core                    0 # The core which is printed using CORE_DPRINTF. Default 0
-trace_sampling_memory_partition                   -1 # The memory partition which is printed using MEMPART_DPRINTF. Default -1 (i.e. all)
-enable_ptx_file_line_stats                    1 # Turn on PTX source line statistic profiling. (1 = On)
-ptx_line_stats_filename gpgpu_inst_stats.txt # Output file for PTX source line statistics.
-gpgpu_kernel_launch_latency                    0 # Kernel launch latency in cycles. Default: 0
-gpgpu_cdp_enabled                      0 # Turn on CDP
-gpgpu_TB_launch_latency                    0 # thread block launch latency in cycles. Default: 0
DRAM Timing Options:
nbk                                    16 # number of banks
CCD                                     2 # column to column delay
RRD                                     8 # minimal delay between activation of rows in different banks
RCD                                    16 # row to column delay
RAS                                    37 # time needed to activate row
RP                                     16 # time needed to precharge (deactivate) row
RC                                     52 # row cycle time
CDLR                                    7 # switching from write to read (changes tWTR)
WR                                     16 # last data-in to row precharge
CL                                     16 # CAS latency
WL                                      6 # Write latency
nbkgrp                                  4 # number of bank groups
CCDL                                    4 # column to column delay between accesses to different bank groups
RTPL                                    3 # read to precharge delay between accesses to different bank groups
Total number of memory sub partition = 24
addr_dec_mask[CHIP]  = 0000000000000000 	high:64 low:0
addr_dec_mask[BK]    = 0000000000007080 	high:15 low:7
addr_dec_mask[ROW]   = 000000000fff8000 	high:28 low:15
addr_dec_mask[COL]   = 0000000000000f7f 	high:12 low:0
addr_dec_mask[BURST] = 000000000000001f 	high:5 low:0
sub_partition_id_mask = 0000000000000080
GPGPU-Sim uArch: clock freqs: 837000000.000000:837000000.000000:837000000.000000:1502000000.000000
GPGPU-Sim uArch: clock periods: 0.00000000119474313023:0.00000000119474313023:0.00000000119474313023:0.00000000066577896138
*** Initializing Memory Statistics ***
GPGPU-Sim uArch: interconnect node map (shaderID+MemID to icntID)
GPGPU-Sim uArch: Memory nodes ID start from index: 14
GPGPU-Sim uArch:    0   1   2   3   4   5
GPGPU-Sim uArch:    6   7   8   9  10  11
GPGPU-Sim uArch:   12  13  14  15  16  17
GPGPU-Sim uArch:   18  19  20  21  22  23
GPGPU-Sim uArch:   24  25  26  27  28  29
GPGPU-Sim uArch:   30  31  32  33  34  35
GPGPU-Sim uArch:   36  37
GPGPU-Sim uArch: interconnect node reverse map (icntID to shaderID+MemID)
GPGPU-Sim uArch: Memory nodes start from ID: 14
GPGPU-Sim uArch:    0   1   2   3   4   5
GPGPU-Sim uArch:    6   7   8   9  10  11
GPGPU-Sim uArch:   12  13  14  15  16  17
GPGPU-Sim uArch:   18  19  20  21  22  23
GPGPU-Sim uArch:   24  25  26  27  28  29
GPGPU-Sim uArch:   30  31  32  33  34  35
GPGPU-Sim uArch:   36  37
69b85e189661d10d6e5f492790654874  /home/ishan/COA/Lab4/gpu-rodinia/cuda/pathfinder/a.out
Extracting PTX file and ptxas options    1: a.1.sm_52.ptx -arch=sm_52
GPGPU-Sim uArch: performance model initialization complete.
self exe links to: /home/ishan/COA/Lab4/gpu-rodinia/cuda/pathfinder/a.out
self exe links to: /home/ishan/COA/Lab4/gpu-rodinia/cuda/pathfinder/a.out
11.0
GPGPU-Sim PTX: __cudaRegisterFatBinary, fat_cubin_handle = 1, filename=default
self exe links to: /home/ishan/COA/Lab4/gpu-rodinia/cuda/pathfinder/a.out
Running md5sum using "md5sum /home/ishan/COA/Lab4/gpu-rodinia/cuda/pathfinder/a.out "
self exe links to: /home/ishan/COA/Lab4/gpu-rodinia/cuda/pathfinder/a.out
Extracting specific PTX file named a.1.sm_52.ptx 
GPGPU-Sim PTX: __cudaRegisterFunction _Z14dynproc_kerneliPiS_S_iiii : hostFun 0x0x5621880c5ba4, fat_cubin_handle = 1
GPGPU-Sim PTX: Parsing a.1.sm_52.ptx
GPGPU-Sim PTX: allocating shared region for "_ZZ14dynproc_kerneliPiS_S_iiiiE4prev" from 0x0 to 0x400 (shared memory space)
GPGPU-Sim PTX: allocating shared region for "_ZZ14dynproc_kerneliPiS_S_iiiiE6result" from 0x400 to 0x800 (shared memory space)
GPGPU-Sim PTX: instruction assembly for function '_Z14dynproc_kerneliPiS_S_iiii'...   done.
GPGPU-Sim PTX: finished parsing EMBEDDED .ptx file a.1.sm_52.ptx
GPGPU-Sim PTX: loading globals with explicit initializers... 
GPGPU-Sim PTX: finished loading globals (0 bytes total).
GPGPU-Sim PTX: loading constants with explicit initializers...  done.
GPGPU-Sim PTX: Loading PTXInfo from a.1.sm_52.ptx
GPGPU-Sim PTX: Kernel '_Z14dynproc_kerneliPiS_S_iiii' : regs=18, lmem=0, smem=2048, cmem=368
pyramidHeight: 20
gridSize: [10000]
border:[20]
blockSize: 256
blockGrid:[47]
targetBlock:[216]
GPGPU-Sim PTX: Setting up arguments for 4 bytes starting at 0x7ffecfe78c4c..
GPGPU-Sim PTX: Setting up arguments for 8 bytes starting at 0x7ffecfe78c40..
GPGPU-Sim PTX: Setting up arguments for 8 bytes starting at 0x7ffecfe78c38..
GPGPU-Sim PTX: Setting up arguments for 8 bytes starting at 0x7ffecfe78c30..
GPGPU-Sim PTX: Setting up arguments for 4 bytes starting at 0x7ffecfe78c48..
GPGPU-Sim PTX: Setting up arguments for 4 bytes starting at 0x7ffecfe78c2c..
GPGPU-Sim PTX: Setting up arguments for 4 bytes starting at 0x7ffecfe78ce0..
GPGPU-Sim PTX: Setting up arguments for 4 bytes starting at 0x7ffecfe78ce8..

GPGPU-Sim PTX: cudaLaunch for 0x0x5621880c5ba4 (mode=performance simulation) on stream 0
GPGPU-Sim PTX: finding reconvergence points for '_Z14dynproc_kerneliPiS_S_iiii'...
GPGPU-Sim PTX: Finding dominators for '_Z14dynproc_kerneliPiS_S_iiii'...
GPGPU-Sim PTX: Finding immediate dominators for '_Z14dynproc_kerneliPiS_S_iiii'...
GPGPU-Sim PTX: Finding postdominators for '_Z14dynproc_kerneliPiS_S_iiii'...
GPGPU-Sim PTX: Finding immediate postdominators for '_Z14dynproc_kerneliPiS_S_iiii'...
GPGPU-Sim PTX: pre-decoding instructions for '_Z14dynproc_kerneliPiS_S_iiii'...
GPGPU-Sim PTX: reconvergence points for _Z14dynproc_kerneliPiS_S_iiii...
GPGPU-Sim PTX:  1 (potential) branch divergence @  PC=0x0c0 (a.1.sm_52.ptx:61) @!%p3 bra BB0_2;
GPGPU-Sim PTX:    immediate post dominator      @  PC=0x110 (a.1.sm_52.ptx:75) bar.sync 0;
GPGPU-Sim PTX:  2 (potential) branch divergence @  PC=0x0c8 (a.1.sm_52.ptx:62) bra.uni BB0_1;
GPGPU-Sim PTX:    immediate post dominator      @  PC=0x0d0 (a.1.sm_52.ptx:65) cvta.to.global.u64 %rd4, %rd2;
GPGPU-Sim PTX:  3 (potential) branch divergence @  PC=0x120 (a.1.sm_52.ptx:77) @%p4 bra BB0_10;
GPGPU-Sim PTX:    immediate post dominator      @  PC=0x338 (a.1.sm_52.ptx:157) and.b16 %rs6, %rs8, 255;
GPGPU-Sim PTX:  4 (potential) branch divergence @  PC=0x208 (a.1.sm_52.ptx:109) @!%p12 bra BB0_6;
GPGPU-Sim PTX:    immediate post dominator      @  PC=0x2b8 (a.1.sm_52.ptx:135) bar.sync 0;
GPGPU-Sim PTX:  5 (potential) branch divergence @  PC=0x210 (a.1.sm_52.ptx:110) bra.uni BB0_5;
GPGPU-Sim PTX:    immediate post dominator      @  PC=0x218 (a.1.sm_52.ptx:113) ld.shared.u32 %r70, [%r2];
GPGPU-Sim PTX:  6 (potential) branch divergence @  PC=0x2c8 (a.1.sm_52.ptx:137) @%p15 bra BB0_10;
GPGPU-Sim PTX:    immediate post dominator      @  PC=0x338 (a.1.sm_52.ptx:157) and.b16 %rs6, %rs8, 255;
GPGPU-Sim PTX:  7 (potential) branch divergence @  PC=0x2d8 (a.1.sm_52.ptx:140) @%p16 bra BB0_9;
GPGPU-Sim PTX:    immediate post dominator      @  PC=0x310 (a.1.sm_52.ptx:150) bar.sync 0;
GPGPU-Sim PTX:  8 (potential) branch divergence @  PC=0x330 (a.1.sm_52.ptx:154) @%p17 bra BB0_4;
GPGPU-Sim PTX:    immediate post dominator      @  PC=0x338 (a.1.sm_52.ptx:157) and.b16 %rs6, %rs8, 255;
GPGPU-Sim PTX:  9 (potential) branch divergence @  PC=0x348 (a.1.sm_52.ptx:159) @%p18 bra BB0_12;
GPGPU-Sim PTX:    immediate post dominator      @  PC=0x390 (a.1.sm_52.ptx:171) ret;
GPGPU-Sim PTX: ... end of reconvergence points for _Z14dynproc_kerneliPiS_S_iiii
GPGPU-Sim PTX: ... done pre-decoding instructions for '_Z14dynproc_kerneliPiS_S_iiii'.
GPGPU-Sim PTX: pushing kernel '_Z14dynproc_kerneliPiS_S_iiii' to stream 0, gridDim= (47,1,1) blockDim = (256,1,1) 
GPGPU-Sim uArch: Shader 0 bind to kernel 1 '_Z14dynproc_kerneliPiS_S_iiii'
GPGPU-Sim uArch: CTA/core = 8, limited by: threads
GPGPU-Sim uArch: Shader 1 bind to kernel 1 '_Z14dynproc_kerneliPiS_S_iiii'
GPGPU-Sim uArch: Shader 2 bind to kernel 1 '_Z14dynproc_kerneliPiS_S_iiii'
GPGPU-Sim uArch: Shader 3 bind to kernel 1 '_Z14dynproc_kerneliPiS_S_iiii'
GPGPU-Sim uArch: Shader 4 bind to kernel 1 '_Z14dynproc_kerneliPiS_S_iiii'
GPGPU-Sim uArch: Shader 5 bind to kernel 1 '_Z14dynproc_kerneliPiS_S_iiii'
GPGPU-Sim uArch: Shader 6 bind to kernel 1 '_Z14dynproc_kerneliPiS_S_iiii'
GPGPU-Sim uArch: Shader 7 bind to kernel 1 '_Z14dynproc_kerneliPiS_S_iiii'
GPGPU-Sim uArch: Shader 8 bind to kernel 1 '_Z14dynproc_kerneliPiS_S_iiii'
GPGPU-Sim uArch: Shader 9 bind to kernel 1 '_Z14dynproc_kerneliPiS_S_iiii'
GPGPU-Sim uArch: Shader 10 bind to kernel 1 '_Z14dynproc_kerneliPiS_S_iiii'
GPGPU-Sim uArch: Shader 11 bind to kernel 1 '_Z14dynproc_kerneliPiS_S_iiii'
GPGPU-Sim uArch: Shader 12 bind to kernel 1 '_Z14dynproc_kerneliPiS_S_iiii'
GPGPU-Sim uArch: Shader 13 bind to kernel 1 '_Z14dynproc_kerneliPiS_S_iiii'
Destroy streams for kernel 1: size 0
kernel_name = _Z14dynproc_kerneliPiS_S_iiii 
kernel_launch_uid = 1 
gpu_sim_cycle = 15221
gpu_sim_insn = 12710760
gpu_ipc =     835.0805
gpu_tot_sim_cycle = 15221
gpu_tot_sim_insn = 12710760
gpu_tot_ipc =     835.0805
gpu_tot_issued_cta = 47
gpu_occupancy = 41.4841% 
gpu_tot_occupancy = 41.4841% 
max_total_param_size = 0
gpu_stall_dramfull = 0
gpu_stall_icnt2sh    = 0
partiton_level_parallism =       2.5009
partiton_level_parallism_total  =       2.5009
partiton_level_parallism_util =       3.5800
partiton_level_parallism_util_total  =       3.5800
L2_BW  =      67.5996 GB/Sec
L2_BW_total  =      67.5996 GB/Sec
gpu_total_sim_rate=508430

========= Core cache stats =========
L1I_cache:
	L1I_total_cache_accesses = 225037
	L1I_total_cache_misses = 2816
	L1I_total_cache_miss_rate = 0.0125
	L1I_total_cache_pending_hits = 0
	L1I_total_cache_reservation_fails = 0
L1D_cache:
	L1D_cache_core[0]: Access = 0, Miss = 0, Miss_rate = -nan, Pending_hits = 0, Reservation_fails = 0
	L1D_cache_core[1]: Access = 0, Miss = 0, Miss_rate = -nan, Pending_hits = 0, Reservation_fails = 0
	L1D_cache_core[2]: Access = 0, Miss = 0, Miss_rate = -nan, Pending_hits = 0, Reservation_fails = 0
	L1D_cache_core[3]: Access = 0, Miss = 0, Miss_rate = -nan, Pending_hits = 0, Reservation_fails = 0
	L1D_cache_core[4]: Access = 0, Miss = 0, Miss_rate = -nan, Pending_hits = 0, Reservation_fails = 0
	L1D_cache_core[5]: Access = 0, Miss = 0, Miss_rate = -nan, Pending_hits = 0, Reservation_fails = 0
	L1D_cache_core[6]: Access = 0, Miss = 0, Miss_rate = -nan, Pending_hits = 0, Reservation_fails = 0
	L1D_cache_core[7]: Access = 0, Miss = 0, Miss_rate = -nan, Pending_hits = 0, Reservation_fails = 0
	L1D_cache_core[8]: Access = 0, Miss = 0, Miss_rate = -nan, Pending_hits = 0, Reservation_fails = 0
	L1D_cache_core[9]: Access = 0, Miss = 0, Miss_rate = -nan, Pending_hits = 0, Reservation_fails = 0
	L1D_cache_core[10]: Access = 0, Miss = 0, Miss_rate = -nan, Pending_hits = 0, Reservation_fails = 0
	L1D_cache_core[11]: Access = 0, Miss = 0, Miss_rate = -nan, Pending_hits = 0, Reservation_fails = 0
	L1D_cache_core[12]: Access = 0, Miss = 0, Miss_rate = -nan, Pending_hits = 0, Reservation_fails = 0
	L1D_cache_core[13]: Access = 0, Miss = 0, Miss_rate = -nan, Pending_hits = 0, Reservation_fails = 0
	L1D_total_cache_accesses = 0
	L1D_total_cache_misses = 0
	L1D_total_cache_pending_hits = 0
	L1D_total_cache_reservation_fails = 0
	L1D_cache_data_port_util = 0.000
	L1D_cache_fill_port_util = 0.000
L1C_cache:
	L1C_total_cache_accesses = 2632
	L1C_total_cache_misses = 896
	L1C_total_cache_miss_rate = 0.3404
	L1C_total_cache_pending_hits = 0
	L1C_total_cache_reservation_fails = 3052
L1T_cache:
	L1T_total_cache_accesses = 0
	L1T_total_cache_misses = 0
	L1T_total_cache_pending_hits = 0
	L1T_total_cache_reservation_fails = 0

Total_core_cache_stats:
	Total_core_cache_stats_breakdown[GLOBAL_ACC_R][HIT] = 0
	Total_core_cache_stats_breakdown[GLOBAL_ACC_R][HIT_RESERVED] = 0
	Total_core_cache_stats_breakdown[GLOBAL_ACC_R][MISS] = 0
	Total_core_cache_stats_breakdown[GLOBAL_ACC_R][RESERVATION_FAIL] = 0
	Total_core_cache_stats_breakdown[GLOBAL_ACC_R][SECTOR_MISS] = 0
	Total_core_cache_stats_breakdown[LOCAL_ACC_R][HIT] = 0
	Total_core_cache_stats_breakdown[LOCAL_ACC_R][HIT_RESERVED] = 0
	Total_core_cache_stats_breakdown[LOCAL_ACC_R][MISS] = 0
	Total_core_cache_stats_breakdown[LOCAL_ACC_R][RESERVATION_FAIL] = 0
	Total_core_cache_stats_breakdown[LOCAL_ACC_R][SECTOR_MISS] = 0
	Total_core_cache_stats_breakdown[CONST_ACC_R][HIT] = 1736
	Total_core_cache_stats_breakdown[CONST_ACC_R][HIT_RESERVED] = 0
	Total_core_cache_stats_breakdown[CONST_ACC_R][MISS] = 896
	Total_core_cache_stats_breakdown[CONST_ACC_R][RESERVATION_FAIL] = 3052
	Total_core_cache_stats_breakdown[CONST_ACC_R][SECTOR_MISS] = 0
	Total_core_cache_stats_breakdown[TEXTURE_ACC_R][HIT] = 0
	Total_core_cache_stats_breakdown[TEXTURE_ACC_R][HIT_RESERVED] = 0
	Total_core_cache_stats_breakdown[TEXTURE_ACC_R][MISS] = 0
	Total_core_cache_stats_breakdown[TEXTURE_ACC_R][RESERVATION_FAIL] = 0
	Total_core_cache_stats_breakdown[TEXTURE_ACC_R][SECTOR_MISS] = 0
	Total_core_cache_stats_breakdown[GLOBAL_ACC_W][HIT] = 0
	Total_core_cache_stats_breakdown[GLOBAL_ACC_W][HIT_RESERVED] = 0
	Total_core_cache_stats_breakdown[GLOBAL_ACC_W][MISS] = 0
	Total_core_cache_stats_breakdown[GLOBAL_ACC_W][RESERVATION_FAIL] = 0
	Total_core_cache_stats_breakdown[GLOBAL_ACC_W][SECTOR_MISS] = 0
	Total_core_cache_stats_breakdown[LOCAL_ACC_W][HIT] = 0
	Total_core_cache_stats_breakdown[LOCAL_ACC_W][HIT_RESERVED] = 0
	Total_core_cache_stats_breakdown[LOCAL_ACC_W][MISS] = 0
	Total_core_cache_stats_breakdown[LOCAL_ACC_W][RESERVATION_FAIL] = 0
	Total_core_cache_stats_breakdown[LOCAL_ACC_W][SECTOR_MISS] = 0
	Total_core_cache_stats_breakdown[L1_WRBK_ACC][HIT] = 0
	Total_core_cache_stats_breakdown[L1_WRBK_ACC][HIT_RESERVED] = 0
	Total_core_cache_stats_breakdown[L1_WRBK_ACC][MISS] = 0
	Total_core_cache_stats_breakdown[L1_WRBK_ACC][RESERVATION_FAIL] = 0
	Total_core_cache_stats_breakdown[L1_WRBK_ACC][SECTOR_MISS] = 0
	Total_core_cache_stats_breakdown[L2_WRBK_ACC][HIT] = 0
	Total_core_cache_stats_breakdown[L2_WRBK_ACC][HIT_RESERVED] = 0
	Total_core_cache_stats_breakdown[L2_WRBK_ACC][MISS] = 0
	Total_core_cache_stats_breakdown[L2_WRBK_ACC][RESERVATION_FAIL] = 0
	Total_core_cache_stats_breakdown[L2_WRBK_ACC][SECTOR_MISS] = 0
	Total_core_cache_stats_breakdown[INST_ACC_R][HIT] = 222221
	Total_core_cache_stats_breakdown[INST_ACC_R][HIT_RESERVED] = 0
	Total_core_cache_stats_breakdown[INST_ACC_R][MISS] = 2816
	Total_core_cache_stats_breakdown[INST_ACC_R][RESERVATION_FAIL] = 0
	Total_core_cache_stats_breakdown[INST_ACC_R][SECTOR_MISS] = 0
	Total_core_cache_stats_breakdown[L1_WR_ALLOC_R][HIT] = 0
	Total_core_cache_stats_breakdown[L1_WR_ALLOC_R][HIT_RESERVED] = 0
	Total_core_cache_stats_breakdown[L1_WR_ALLOC_R][MISS] = 0
	Total_core_cache_stats_breakdown[L1_WR_ALLOC_R][RESERVATION_FAIL] = 0
	Total_core_cache_stats_breakdown[L1_WR_ALLOC_R][SECTOR_MISS] = 0
	Total_core_cache_stats_breakdown[L2_WR_ALLOC_R][HIT] = 0
	Total_core_cache_stats_breakdown[L2_WR_ALLOC_R][HIT_RESERVED] = 0
	Total_core_cache_stats_breakdown[L2_WR_ALLOC_R][MISS] = 0
	Total_core_cache_stats_breakdown[L2_WR_ALLOC_R][RESERVATION_FAIL] = 0
	Total_core_cache_stats_breakdown[L2_WR_ALLOC_R][SECTOR_MISS] = 0
	Total_core_cache_stats_breakdown[CONST_ACC_R][TOTAL_ACCESS] = 2632
	Total_core_cache_stats_breakdown[INST_ACC_R][TOTAL_ACCESS] = 225037

Total_core_cache_fail_stats:
	Total_core_cache_fail_stats_breakdown[CONST_ACC_R][MSHR_MERGE_ENRTY_FAIL] = 3052
ctas_completed 47, Shader 0 warp_id issue ditsribution:
warp_id:
0, 1, 2, 3, 4, 5, 6, 7, 8, 9, 10, 11, 12, 13, 14, 15, 16, 17, 18, 19, 20, 21, 22, 23, 24, 25, 26, 27, 28, 29, 30, 31, 
distro:
1373, 1373, 1373, 1379, 1374, 1380, 1382, 1365, 1378, 1379, 1377, 1373, 1382, 1386, 1383, 1377, 1378, 1381, 1381, 1381, 1378, 1387, 1376, 1379, 1380, 1384, 1384, 1381, 1384, 1388, 1383, 1390, 
gpgpu_n_tot_thrd_icount = 13941152
gpgpu_n_tot_w_icount = 435661
gpgpu_n_stall_shd_mem = 32830
gpgpu_n_mem_read_local = 0
gpgpu_n_mem_write_local = 0
gpgpu_n_mem_read_global = 36366
gpgpu_n_mem_write_global = 1574
gpgpu_n_mem_texture = 0
gpgpu_n_mem_const = 14
gpgpu_n_load_insn  = 229320
gpgpu_n_store_insn = 10000
gpgpu_n_shmem_insn = 1306720
gpgpu_n_sstarr_insn = 0
gpgpu_n_tex_insn = 0
gpgpu_n_const_mem_insn = 0
gpgpu_n_param_mem_insn = 84224
gpgpu_n_shmem_bkconflict = 0
gpgpu_n_cache_bkconflict = 0
gpgpu_n_intrawarp_mshr_merge = 0
gpgpu_n_cmem_portconflict = 3052
gpgpu_stall_shd_mem[c_mem][resource_stall] = 3052
gpgpu_stall_shd_mem[s_mem][bk_conf] = 0
gpgpu_stall_shd_mem[gl_mem][resource_stall] = 0
gpgpu_stall_shd_mem[gl_mem][coal_stall] = 29778
gpgpu_stall_shd_mem[gl_mem][data_port_stall] = 0
gpu_reg_bank_conflict_stalls = 0
Warp Occupancy Distribution:
Stall:57980	W0_Idle:101727	W0_Scoreboard:310514	W1:0	W2:0	W3:0	W4:0	W5:0	W6:0	W7:0	W8:0	W9:0	W10:0	W11:0	W12:3219	W13:2484	W14:2484	W15:2484	W16:2484	W17:2484	W18:2484	W19:2484	W20:3035	W21:2484	W22:2484	W23:2484	W24:2484	W25:2484	W26:2484	W27:2484	W28:2484	W29:2484	W30:2484	W31:2484	W32:384695
single_issue_nums: WS0:68771	WS1:68701	WS2:68649	WS3:68832	
dual_issue_nums: WS0:20141	WS1:20176	WS2:20202	WS3:19835	
traffic_breakdown_coretomem[CONST_ACC_R] = 112 {8:14,}
traffic_breakdown_coretomem[GLOBAL_ACC_R] = 290928 {8:36366,}
traffic_breakdown_coretomem[GLOBAL_ACC_W] = 62960 {40:1574,}
traffic_breakdown_coretomem[INST_ACC_R] = 896 {8:112,}
traffic_breakdown_memtocore[CONST_ACC_R] = 1120 {40:28,}
traffic_breakdown_memtocore[GLOBAL_ACC_R] = 1454640 {40:36366,}
traffic_breakdown_memtocore[GLOBAL_ACC_W] = 12592 {8:1574,}
traffic_breakdown_memtocore[INST_ACC_R] = 17920 {40:448,}
maxmflatency = 395 
max_icnt2mem_latency = 68 
maxmrqlatency = 32 
max_icnt2sh_latency = 98 
averagemflatency = 251 
avg_icnt2mem_latency = 10 
avg_mrq_latency = 1 
avg_icnt2sh_latency = 14 
mrq_lat_table:19830 	3140 	1603 	1079 	630 	2 	0 	0 	0 	0 	0 	0 	0 	0 	0 	0 	0 	0 	0 	0 	0 	0 	0 	0 	0 	0 	0 	0 	0 	0 	0 	0 	
dq_lat_table:0 	0 	0 	0 	0 	0 	0 	0 	0 	0 	0 	0 	0 	0 	0 	0 	0 	0 	0 	0 	0 	0 	0 	0 	0 	0 	0 	0 	0 	0 	0 	0 	
mf_lat_table:0 	0 	0 	0 	0 	0 	0 	18892 	19076 	0 	0 	0 	0 	0 	0 	0 	0 	0 	0 	0 	0 	0 	0 	0 	0 	0 	0 	0 	0 	0 	0 	0 	
icnt2mem_lat_table:0 	0 	18627 	15200 	2533 	1669 	37 	0 	0 	0 	0 	0 	0 	0 	0 	0 	0 	0 	0 	0 	0 	0 	0 	0 	
icnt2sh_lat_table:0 	0 	8028 	17240 	10598 	2037 	65 	0 	0 	0 	0 	0 	0 	0 	0 	0 	0 	0 	0 	0 	0 	0 	0 	0 	
mf_lat_pw_table:0 	0 	0 	0 	0 	0 	0 	22 	4 	0 	0 	0 	0 	0 	0 	0 	0 	0 	0 	0 	0 	0 	0 	0 	0 	0 	0 	0 	0 	0 	0 	0 	
maximum concurrent accesses to same row:
dram[0]:        64        64        64        64        64        64        64        64        64        64        64        64        64        64        64        64 
dram[1]:        64        64        64        64        64        64        64        64        64        64        64        64        64        64        64        64 
dram[2]:        64        64        64        64        64        64        64        64        64        64        64        64        64        64        64        64 
dram[3]:        64        64        64        64        64        64        64        64        64        64        64        64        64        64        64        64 
dram[4]:        64        64        64        64        64        64        64        64        64        64        64        64        64        64        64        64 
dram[5]:        64        64        64        64        64        64        64        64        64        64        64        64        64        64        64        64 
dram[6]:        64        64        64        64        64        64        64        64        64        64        64        64        64        64        64        64 
dram[7]:        64        64        64        64        64        64        64        64        64        64        64        64        64        64        64        64 
dram[8]:        64        64        64        64        64        64        64        64        64        64        64        64        64        64        64        64 
dram[9]:        64        64        64        64        64        64        64        64        64        64        64        64        64        64        64        64 
dram[10]:        64        64        64        64        64        64        64        64        64        64        64        64        64        64        64        64 
dram[11]:        64        64        64        64        64        64        64        64        64        64        64        64        64        64        64        64 
maximum service time to same row:
dram[0]:      6768      6083      8070      8075      8686      8685      9491      9471     10159     10158     10873     10881     11481     11463     12277     12284 
dram[1]:      6064      5764      8104      8102      8702      8702      9466      9457     10130     10138     10868     10868     11460     11493     12289     12289 
dram[2]:      5695      5710      8099      8097      8725      8724      9442      9438     10138     10133     10927     10917     11468     11466     12287     12285 
dram[3]:      5738      7284      8123      8109      8717      8712      9466      9449     10130     10133     10915     10927     11471     11484     12284     12299 
dram[4]:      7317      7313      8107      8110      8859      8858      9443      9452     10141     10138     10887     10881     11473     11471     12297     12235 
dram[5]:      7307      7306      8116      8096      8865      8878      9450      9497     10143     10151     10873     10924     11489     11487     12233     12238 
dram[6]:      7335      7297      8095      8100      8876      8873      9511      9506     10148     10167     10921     10897     11479     11477     12230     12228 
dram[7]:      7293      7298      8105      8118      8908      8904      9503      9528     10191     10192     10900     10905     11481     11481     12224     12223 
dram[8]:      7316      7312      8123      8082      8882      8868      9472      9471     10182     10162     10921     10926     11487     11476     12245     12294 
dram[9]:      7307      7303      8080      8095      8863      8859      9467      9452     10160     10170     10913     10910     11476     11502     12292     12297 
dram[10]:      7326      7321      8068      8065      8889      8858      9450      9459     10169     10168     10879     10878     11501     11513     12296     12292 
dram[11]:      7340      7335      8086      8073      8854      8869      9457      9454     10165     10182     10888     10874     11509     11501     12294     12279 
average row accesses per activate:
dram[0]: 47.000000 46.000000 72.000000 72.000000 128.000000 128.000000 128.000000 128.000000 128.000000 128.000000 128.000000 128.000000 128.000000 128.000000 128.000000 128.000000 
dram[1]: 46.000000 61.333332 72.000000 72.000000 128.000000 128.000000 128.000000 128.000000 128.000000 128.000000 128.000000 128.000000 128.000000 128.000000 128.000000 128.000000 
dram[2]: 61.333332 61.333332 74.000000 74.000000 128.000000 128.000000 128.000000 128.000000 128.000000 128.000000 128.000000 128.000000 128.000000 128.000000 128.000000 128.000000 
dram[3]: 61.333332 61.333332 74.000000 74.000000 128.000000 128.000000 128.000000 128.000000 128.000000 128.000000 128.000000 128.000000 128.000000 128.000000 128.000000 128.000000 
dram[4]: 90.000000 90.000000 74.000000 74.000000 128.000000 128.000000 128.000000 128.000000 128.000000 128.000000 128.000000 128.000000 128.000000 128.000000 128.000000 128.000000 
dram[5]: 90.000000 90.000000 74.000000 74.000000 128.000000 128.000000 128.000000 128.000000 128.000000 128.000000 128.000000 128.000000 128.000000 128.000000 128.000000 128.000000 
dram[6]: 90.000000 90.000000 74.000000 74.000000 128.000000 128.000000 128.000000 128.000000 128.000000 128.000000 128.000000 128.000000 128.000000 128.000000 128.000000 128.000000 
dram[7]: 90.000000 90.000000 72.000000 72.000000 128.000000 128.000000 128.000000 128.000000 128.000000 128.000000 128.000000 128.000000 128.000000 128.000000 128.000000 128.000000 
dram[8]: 90.000000 90.000000 72.000000 72.000000 128.000000 128.000000 128.000000 128.000000 128.000000 128.000000 128.000000 128.000000 128.000000 128.000000 128.000000 128.000000 
dram[9]: 90.000000 90.000000 72.000000 72.000000 128.000000 128.000000 128.000000 128.000000 128.000000 128.000000 128.000000 128.000000 128.000000 128.000000 128.000000 128.000000 
dram[10]: 90.000000 90.000000 72.000000 72.000000 128.000000 128.000000 128.000000 128.000000 128.000000 128.000000 128.000000 128.000000 128.000000 128.000000 128.000000 128.000000 
dram[11]: 90.000000 90.000000 72.000000 72.000000 128.000000 128.000000 128.000000 128.000000 128.000000 128.000000 128.000000 128.000000 128.000000 128.000000 128.000000 128.000000 
average row locality = 26284/251 = 104.717133
number of total memory accesses made:
dram[0]:         0         0         0         0         0         0         0         0         0         0         0         0         0         0         0         0 
dram[1]:         0         0         0         0         0         0         0         0         0         0         0         0         0         0         0         0 
dram[2]:         0         0         0         0         0         0         0         0         0         0         0         0         0         0         0         0 
dram[3]:         0         0         0         0         0         0         0         0         0         0         0         0         0         0         0         0 
dram[4]:         0         0         0         0         0         0         0         0         0         0         0         0         0         0         0         0 
dram[5]:         0         0         0         0         0         0         0         0         0         0         0         0         0         0         0         0 
dram[6]:         0         0         0         0         0         0         0         0         0         0         0         0         0         0         0         0 
dram[7]:         0         0         0         0         0         0         0         0         0         0         0         0         0         0         0         0 
dram[8]:         0         0         0         0         0         0         0         0         0         0         0         0         0         0         0         0 
dram[9]:         0         0         0         0         0         0         0         0         0         0         0         0         0         0         0         0 
dram[10]:         0         0         0         0         0         0         0         0         0         0         0         0         0         0         0         0 
dram[11]:         0         0         0         0         0         0         0         0         0         0         0         0         0         0         0         0 
total accesses: 0
min_bank_accesses = 0!
min_chip_accesses = 0!
number of total read accesses:
dram[0]:       188       184       144       144       128       128       128       128       128       128       128       128       128       128       128       128 
dram[1]:       184       184       144       144       128       128       128       128       128       128       128       128       128       128       128       128 
dram[2]:       184       184       148       148       128       128       128       128       128       128       128       128       128       128       128       128 
dram[3]:       184       184       148       148       128       128       128       128       128       128       128       128       128       128       128       128 
dram[4]:       180       180       148       148       128       128       128       128       128       128       128       128       128       128       128       128 
dram[5]:       180       180       148       148       128       128       128       128       128       128       128       128       128       128       128       128 
dram[6]:       180       180       148       148       128       128       128       128       128       128       128       128       128       128       128       128 
dram[7]:       180       180       144       144       128       128       128       128       128       128       128       128       128       128       128       128 
dram[8]:       180       180       144       144       128       128       128       128       128       128       128       128       128       128       128       128 
dram[9]:       180       180       144       144       128       128       128       128       128       128       128       128       128       128       128       128 
dram[10]:       180       180       144       144       128       128       128       128       128       128       128       128       128       128       128       128 
dram[11]:       180       180       144       144       128       128       128       128       128       128       128       128       128       128       128       128 
total dram reads = 26284
bank skew: 188/128 = 1.47
chip skew: 2200/2184 = 1.01
number of total write accesses:
dram[0]:         0         0         0         0         0         0         0         0         0         0         0         0         0         0         0         0 
dram[1]:         0         0         0         0         0         0         0         0         0         0         0         0         0         0         0         0 
dram[2]:         0         0         0         0         0         0         0         0         0         0         0         0         0         0         0         0 
dram[3]:         0         0         0         0         0         0         0         0         0         0         0         0         0         0         0         0 
dram[4]:         0         0         0         0         0         0         0         0         0         0         0         0         0         0         0         0 
dram[5]:         0         0         0         0         0         0         0         0         0         0         0         0         0         0         0         0 
dram[6]:         0         0         0         0         0         0         0         0         0         0         0         0         0         0         0         0 
dram[7]:         0         0         0         0         0         0         0         0         0         0         0         0         0         0         0         0 
dram[8]:         0         0         0         0         0         0         0         0         0         0         0         0         0         0         0         0 
dram[9]:         0         0         0         0         0         0         0         0         0         0         0         0         0         0         0         0 
dram[10]:         0         0         0         0         0         0         0         0         0         0         0         0         0         0         0         0 
dram[11]:         0         0         0         0         0         0         0         0         0         0         0         0         0         0         0         0 
total dram writes = 0
min_bank_accesses = 0!
min_chip_accesses = 0!
average mf latency per bank:
dram[0]:        403       362       402       399       377       383       361       352       341       345       343       347       351       345       344       344
dram[1]:        406       372       401       391       381       365       348       364       347       344       349       339       344       349       349       352
dram[2]:        364       368       403       398       364       367       357       346       341       342       349       350       339       341       339       342
dram[3]:        379       369       393       393       370       387       354       361       346       349       342       344       346       347       342       346
dram[4]:        368       382       395       389       372       359       350       352       356       344       343       348       350       346       338       344
dram[5]:        380       365       401       412       377       378       361       364       332       345       346       341       343       341       356       339
dram[6]:        373       392       389       398       368       387       356       351       350       347       348       349       344       347       336       346
dram[7]:        376       384       401       392       376       371       355       355       347       346       341       344       355       349       343       340
dram[8]:        384       368       398       411       366       376       351       368       345       346       344       345       339       342       352       351
dram[9]:        374       387       401       401       368       374       366       350       349       358       353       352       344       348       343       352
dram[10]:        378       382       400       399       374       372       356       361       350       349       344       343       360       352       351       345
dram[11]:        388       382       408       403       372       375       350       360       350       343       350       344       342       350       347       352
maximum mf latency per bank:
dram[0]:        329       319       299       299       326       323       292       278       283       289       285       278       287       291       293       306
dram[1]:        395       346       309       297       365       326       295       288       280       290       285       276       281       287       305       285
dram[2]:        332       323       300       323       312       331       277       286       286       279       283       283       289       285       285       276
dram[3]:        315       326       311       301       331       318       285       287       295       291       296       287       282       293       270       287
dram[4]:        308       316       297       302       317       302       289       290       283       278       283       288       285       286       282       278
dram[5]:        319       310       314       317       328       325       283       279       282       282       288       281       282       282       275       290
dram[6]:        308       330       302       329       316       341       293       281       291       281       285       283       285       283       291       286
dram[7]:        329       307       293       294       306       306       285       291       280       285       283       279       295       281       287       284
dram[8]:        312       298       308       295       306       319       279       285       282       286       281       295       285       287       288       304
dram[9]:        316       323       293       294       309       329       289       294       289       283       284       288       289       295       308       295
dram[10]:        314       321       294       291       314       317       282       306       292       282       287       281       292       290       291       294
dram[11]:        340       337       297       290       325       318       292       314       277       288       285       294       292       291       283       277
Memory Partition 0: 
Cache L2_bank_000:
MSHR contents

Cache L2_bank_001:
MSHR contents

In Dram Latency Queue (total = 0): 
DRAM[0]: 16 bks, busW=4 BL=8 CL=16, tRRD=8 tCCD=2, tRCD=16 tRAS=37 tRP=16 tRC=52
n_cmd=27313 n_nop=25057 n_act=38 n_pre=22 n_ref_event=94702031002272 n_req=2196 n_rd=2196 n_rd_L2_A=0 n_write=0 n_wr_bk=0 bw_util=0.1608
n_activity=10733 dram_eff=0.4092
bk0: 188a 26855i bk1: 184a 26840i bk2: 144a 26929i bk3: 144a 26935i bk4: 128a 27018i bk5: 128a 26973i bk6: 128a 27012i bk7: 128a 27022i bk8: 128a 27029i bk9: 128a 26999i bk10: 128a 27021i bk11: 128a 27039i bk12: 128a 27018i bk13: 128a 27046i bk14: 128a 27027i bk15: 128a 27026i 

------------------------------------------------------------------------

Row_Buffer_Locality = 0.989071
Row_Buffer_Locality_read = 0.989071
Row_Buffer_Locality_write = -nan
Bank_Level_Parallism = 1.265545
Bank_Level_Parallism_Col = 0.676253
Bank_Level_Parallism_Ready = 1.058743
write_to_read_ratio_blp_rw_average = 0.000000
GrpLevelPara = 0.000000 

BW Util details:
bwutil = 0.160803 
total_CMD = 27313 
util_bw = 4392 
Wasted_Col = 2024 
Wasted_Row = 167 
Idle = 20730 

BW Util Bottlenecks: 
RCDc_limit = 439 
RCDWRc_limit = 0 
WTRc_limit = 0 
RTWc_limit = 0 
CCDLc_limit = 1727 
rwq = 0 
CCDLc_limit_alone = 1727 
WTRc_limit_alone = 0 
RTWc_limit_alone = 0 

Commands details: 
total_CMD = 27313 
n_nop = 25057 
Read = 2196 
Write = 0 
L2_Alloc = 0 
L2_WB = 0 
n_act = 38 
n_pre = 22 
n_ref = 94702031002272 
n_req = 2196 
total_req = 2196 

Dual Bus Interface Util: 
issued_total_row = 60 
issued_total_col = 2196 
Row_Bus_Util =  0.002197 
CoL_Bus_Util = 0.080401 
Either_Row_CoL_Bus_Util = 0.082598 
Issued_on_Two_Bus_Simul_Util = 0.000000 
issued_two_Eff = 0.000000 
queue_avg = 0.233625 


dram_util_bins: 0 0 0 0 0 0 0 0 0 0
dram_eff_bins: 0 0 0 0 0 0 0 0 0 0
mrqq: max=17 avg=0.233625
Memory Partition 1: 
Cache L2_bank_002:
MSHR contents

Cache L2_bank_003:
MSHR contents

In Dram Latency Queue (total = 0): 
DRAM[1]: 16 bks, busW=4 BL=8 CL=16, tRRD=8 tCCD=2, tRCD=16 tRAS=37 tRP=16 tRC=52
n_cmd=27313 n_nop=25061 n_act=38 n_pre=22 n_ref_event=94702031861904 n_req=2192 n_rd=2192 n_rd_L2_A=0 n_write=0 n_wr_bk=0 bw_util=0.1605
n_activity=10524 dram_eff=0.4166
bk0: 184a 26835i bk1: 184a 26827i bk2: 144a 26945i bk3: 144a 26962i bk4: 128a 27021i bk5: 128a 27007i bk6: 128a 26995i bk7: 128a 27008i bk8: 128a 27033i bk9: 128a 27027i bk10: 128a 27040i bk11: 128a 27046i bk12: 128a 27045i bk13: 128a 27025i bk14: 128a 27026i bk15: 128a 26991i 

------------------------------------------------------------------------

Row_Buffer_Locality = 0.989507
Row_Buffer_Locality_read = 0.989507
Row_Buffer_Locality_write = -nan
Bank_Level_Parallism = 1.264483
Bank_Level_Parallism_Col = 1.229219
Bank_Level_Parallism_Ready = 1.047902
write_to_read_ratio_blp_rw_average = 0.000000
GrpLevelPara = 1.229219 

BW Util details:
bwutil = 0.160510 
total_CMD = 27313 
util_bw = 4384 
Wasted_Col = 1994 
Wasted_Row = 169 
Idle = 20766 

BW Util Bottlenecks: 
RCDc_limit = 492 
RCDWRc_limit = 0 
WTRc_limit = 0 
RTWc_limit = 0 
CCDLc_limit = 1674 
rwq = 0 
CCDLc_limit_alone = 1674 
WTRc_limit_alone = 0 
RTWc_limit_alone = 0 

Commands details: 
total_CMD = 27313 
n_nop = 25061 
Read = 2192 
Write = 0 
L2_Alloc = 0 
L2_WB = 0 
n_act = 38 
n_pre = 22 
n_ref = 94702031861904 
n_req = 2192 
total_req = 2192 

Dual Bus Interface Util: 
issued_total_row = 60 
issued_total_col = 2192 
Row_Bus_Util =  0.002197 
CoL_Bus_Util = 0.080255 
Either_Row_CoL_Bus_Util = 0.082452 
Issued_on_Two_Bus_Simul_Util = 0.000000 
issued_two_Eff = 0.000000 
queue_avg = 0.247941 


dram_util_bins: 0 0 0 0 0 0 0 0 0 0
dram_eff_bins: 0 0 0 0 0 0 0 0 0 0
mrqq: max=14 avg=0.247941
Memory Partition 2: 
Cache L2_bank_004:
MSHR contents

Cache L2_bank_005:
MSHR contents

In Dram Latency Queue (total = 0): 
DRAM[2]: 16 bks, busW=4 BL=8 CL=16, tRRD=8 tCCD=2, tRCD=16 tRAS=37 tRP=16 tRC=52
n_cmd=27313 n_nop=25053 n_act=38 n_pre=22 n_ref_event=0 n_req=2200 n_rd=2200 n_rd_L2_A=0 n_write=0 n_wr_bk=0 bw_util=0.1611
n_activity=10783 dram_eff=0.408
bk0: 184a 26880i bk1: 184a 26857i bk2: 148a 26931i bk3: 148a 26937i bk4: 128a 26985i bk5: 128a 26999i bk6: 128a 27025i bk7: 128a 26994i bk8: 128a 27019i bk9: 128a 27037i bk10: 128a 27022i bk11: 128a 27046i bk12: 128a 27063i bk13: 128a 27010i bk14: 128a 27052i bk15: 128a 27029i 

------------------------------------------------------------------------

Row_Buffer_Locality = 0.990000
Row_Buffer_Locality_read = 0.990000
Row_Buffer_Locality_write = -nan
Bank_Level_Parallism = 1.244536
Bank_Level_Parallism_Col = 1.216197
Bank_Level_Parallism_Ready = 1.041345
write_to_read_ratio_blp_rw_average = 0.000000
GrpLevelPara = 1.216197 

BW Util details:
bwutil = 0.161095 
total_CMD = 27313 
util_bw = 4400 
Wasted_Col = 2069 
Wasted_Row = 186 
Idle = 20658 

BW Util Bottlenecks: 
RCDc_limit = 474 
RCDWRc_limit = 0 
WTRc_limit = 0 
RTWc_limit = 0 
CCDLc_limit = 1744 
rwq = 0 
CCDLc_limit_alone = 1744 
WTRc_limit_alone = 0 
RTWc_limit_alone = 0 

Commands details: 
total_CMD = 27313 
n_nop = 25053 
Read = 2200 
Write = 0 
L2_Alloc = 0 
L2_WB = 0 
n_act = 38 
n_pre = 22 
n_ref = 0 
n_req = 2200 
total_req = 2200 

Dual Bus Interface Util: 
issued_total_row = 60 
issued_total_col = 2200 
Row_Bus_Util =  0.002197 
CoL_Bus_Util = 0.080548 
Either_Row_CoL_Bus_Util = 0.082744 
Issued_on_Two_Bus_Simul_Util = 0.000000 
issued_two_Eff = 0.000000 
queue_avg = 0.192399 


dram_util_bins: 0 0 0 0 0 0 0 0 0 0
dram_eff_bins: 0 0 0 0 0 0 0 0 0 0
mrqq: max=11 avg=0.192399
Memory Partition 3: 
Cache L2_bank_006:
MSHR contents

Cache L2_bank_007:
MSHR contents

In Dram Latency Queue (total = 0): 
DRAM[3]: 16 bks, busW=4 BL=8 CL=16, tRRD=8 tCCD=2, tRCD=16 tRAS=37 tRP=16 tRC=52
n_cmd=27313 n_nop=25053 n_act=38 n_pre=22 n_ref_event=0 n_req=2200 n_rd=2200 n_rd_L2_A=0 n_write=0 n_wr_bk=0 bw_util=0.1611
n_activity=10339 dram_eff=0.4256
bk0: 184a 26834i bk1: 184a 26832i bk2: 148a 26932i bk3: 148a 26953i bk4: 128a 27027i bk5: 128a 26998i bk6: 128a 26986i bk7: 128a 27012i bk8: 128a 27016i bk9: 128a 27008i bk10: 128a 27018i bk11: 128a 27027i bk12: 128a 27037i bk13: 128a 27010i bk14: 128a 27058i bk15: 128a 27021i 

------------------------------------------------------------------------

Row_Buffer_Locality = 0.990000
Row_Buffer_Locality_read = 0.990000
Row_Buffer_Locality_write = -nan
Bank_Level_Parallism = 1.249283
Bank_Level_Parallism_Col = 1.220863
Bank_Level_Parallism_Ready = 1.044051
write_to_read_ratio_blp_rw_average = 0.000000
GrpLevelPara = 1.220863 

BW Util details:
bwutil = 0.161095 
total_CMD = 27313 
util_bw = 4400 
Wasted_Col = 2053 
Wasted_Row = 177 
Idle = 20683 

BW Util Bottlenecks: 
RCDc_limit = 447 
RCDWRc_limit = 0 
WTRc_limit = 0 
RTWc_limit = 0 
CCDLc_limit = 1721 
rwq = 0 
CCDLc_limit_alone = 1721 
WTRc_limit_alone = 0 
RTWc_limit_alone = 0 

Commands details: 
total_CMD = 27313 
n_nop = 25053 
Read = 2200 
Write = 0 
L2_Alloc = 0 
L2_WB = 0 
n_act = 38 
n_pre = 22 
n_ref = 0 
n_req = 2200 
total_req = 2200 

Dual Bus Interface Util: 
issued_total_row = 60 
issued_total_col = 2200 
Row_Bus_Util =  0.002197 
CoL_Bus_Util = 0.080548 
Either_Row_CoL_Bus_Util = 0.082744 
Issued_on_Two_Bus_Simul_Util = 0.000000 
issued_two_Eff = 0.000000 
queue_avg = 0.231245 


dram_util_bins: 0 0 0 0 0 0 0 0 0 0
dram_eff_bins: 0 0 0 0 0 0 0 0 0 0
mrqq: max=10 avg=0.231245
Memory Partition 4: 
Cache L2_bank_008:
MSHR contents

Cache L2_bank_009:
MSHR contents

In Dram Latency Queue (total = 0): 
DRAM[4]: 16 bks, busW=4 BL=8 CL=16, tRRD=8 tCCD=2, tRCD=16 tRAS=37 tRP=16 tRC=52
n_cmd=27313 n_nop=25065 n_act=36 n_pre=20 n_ref_event=0 n_req=2192 n_rd=2192 n_rd_L2_A=0 n_write=0 n_wr_bk=0 bw_util=0.1605
n_activity=10505 dram_eff=0.4173
bk0: 180a 26890i bk1: 180a 26903i bk2: 148a 26959i bk3: 148a 26923i bk4: 128a 27029i bk5: 128a 27006i bk6: 128a 26997i bk7: 128a 27021i bk8: 128a 26985i bk9: 128a 27034i bk10: 128a 27028i bk11: 128a 27032i bk12: 128a 27044i bk13: 128a 27036i bk14: 128a 27043i bk15: 128a 27025i 

------------------------------------------------------------------------

Row_Buffer_Locality = 0.990876
Row_Buffer_Locality_read = 0.990876
Row_Buffer_Locality_write = -nan
Bank_Level_Parallism = 1.268297
Bank_Level_Parallism_Col = 1.242038
Bank_Level_Parallism_Ready = 1.054288
write_to_read_ratio_blp_rw_average = 0.000000
GrpLevelPara = 1.242038 

BW Util details:
bwutil = 0.160510 
total_CMD = 27313 
util_bw = 4384 
Wasted_Col = 1886 
Wasted_Row = 156 
Idle = 20887 

BW Util Bottlenecks: 
RCDc_limit = 453 
RCDWRc_limit = 0 
WTRc_limit = 0 
RTWc_limit = 0 
CCDLc_limit = 1593 
rwq = 0 
CCDLc_limit_alone = 1593 
WTRc_limit_alone = 0 
RTWc_limit_alone = 0 

Commands details: 
total_CMD = 27313 
n_nop = 25065 
Read = 2192 
Write = 0 
L2_Alloc = 0 
L2_WB = 0 
n_act = 36 
n_pre = 20 
n_ref = 0 
n_req = 2192 
total_req = 2192 

Dual Bus Interface Util: 
issued_total_row = 56 
issued_total_col = 2192 
Row_Bus_Util =  0.002050 
CoL_Bus_Util = 0.080255 
Either_Row_CoL_Bus_Util = 0.082305 
Issued_on_Two_Bus_Simul_Util = 0.000000 
issued_two_Eff = 0.000000 
queue_avg = 0.204408 


dram_util_bins: 0 0 0 0 0 0 0 0 0 0
dram_eff_bins: 0 0 0 0 0 0 0 0 0 0
mrqq: max=12 avg=0.204408
Memory Partition 5: 
Cache L2_bank_010:
MSHR contents

Cache L2_bank_011:
MSHR contents

In Dram Latency Queue (total = 0): 
DRAM[5]: 16 bks, busW=4 BL=8 CL=16, tRRD=8 tCCD=2, tRCD=16 tRAS=37 tRP=16 tRC=52
n_cmd=27313 n_nop=25065 n_act=36 n_pre=20 n_ref_event=0 n_req=2192 n_rd=2192 n_rd_L2_A=0 n_write=0 n_wr_bk=0 bw_util=0.1605
n_activity=10977 dram_eff=0.3994
bk0: 180a 26897i bk1: 180a 26875i bk2: 148a 26938i bk3: 148a 26960i bk4: 128a 26994i bk5: 128a 26980i bk6: 128a 27028i bk7: 128a 27022i bk8: 128a 27043i bk9: 128a 27064i bk10: 128a 27026i bk11: 128a 27048i bk12: 128a 27050i bk13: 128a 27010i bk14: 128a 27062i bk15: 128a 27060i 

------------------------------------------------------------------------

Row_Buffer_Locality = 0.990876
Row_Buffer_Locality_read = 0.990876
Row_Buffer_Locality_write = -nan
Bank_Level_Parallism = 1.229105
Bank_Level_Parallism_Col = 1.004582
Bank_Level_Parallism_Ready = 1.045600
write_to_read_ratio_blp_rw_average = 0.000000
GrpLevelPara = 0.000000 

BW Util details:
bwutil = 0.160510 
total_CMD = 27313 
util_bw = 4384 
Wasted_Col = 2069 
Wasted_Row = 160 
Idle = 20700 

BW Util Bottlenecks: 
RCDc_limit = 409 
RCDWRc_limit = 0 
WTRc_limit = 0 
RTWc_limit = 0 
CCDLc_limit = 1781 
rwq = 0 
CCDLc_limit_alone = 1781 
WTRc_limit_alone = 0 
RTWc_limit_alone = 0 

Commands details: 
total_CMD = 27313 
n_nop = 25065 
Read = 2192 
Write = 0 
L2_Alloc = 0 
L2_WB = 0 
n_act = 36 
n_pre = 20 
n_ref = 0 
n_req = 2192 
total_req = 2192 

Dual Bus Interface Util: 
issued_total_row = 56 
issued_total_col = 2192 
Row_Bus_Util =  0.002050 
CoL_Bus_Util = 0.080255 
Either_Row_CoL_Bus_Util = 0.082305 
Issued_on_Two_Bus_Simul_Util = 0.000000 
issued_two_Eff = 0.000000 
queue_avg = 0.193534 


dram_util_bins: 0 0 0 0 0 0 0 0 0 0
dram_eff_bins: 0 0 0 0 0 0 0 0 0 0
mrqq: max=16 avg=0.193534
Memory Partition 6: 
Cache L2_bank_012:
MSHR contents

Cache L2_bank_013:
MSHR contents

In Dram Latency Queue (total = 0): 
DRAM[6]: 16 bks, busW=4 BL=8 CL=16, tRRD=8 tCCD=2, tRCD=16 tRAS=37 tRP=16 tRC=52
n_cmd=27313 n_nop=25065 n_act=36 n_pre=20 n_ref_event=4568229571824690154 n_req=2192 n_rd=2192 n_rd_L2_A=0 n_write=0 n_wr_bk=0 bw_util=0.1605
n_activity=10889 dram_eff=0.4026
bk0: 180a 26922i bk1: 180a 26854i bk2: 148a 26952i bk3: 148a 26939i bk4: 128a 26979i bk5: 128a 26970i bk6: 128a 27012i bk7: 128a 27041i bk8: 128a 27032i bk9: 128a 27034i bk10: 128a 27041i bk11: 128a 27026i bk12: 128a 27030i bk13: 128a 27022i bk14: 128a 27039i bk15: 128a 27033i 

------------------------------------------------------------------------

Row_Buffer_Locality = 0.990876
Row_Buffer_Locality_read = 0.990876
Row_Buffer_Locality_write = -nan
Bank_Level_Parallism = 1.241084
Bank_Level_Parallism_Col = 1.219300
Bank_Level_Parallism_Ready = 1.065693
write_to_read_ratio_blp_rw_average = 0.000000
GrpLevelPara = 1.219300 

BW Util details:
bwutil = 0.160510 
total_CMD = 27313 
util_bw = 4384 
Wasted_Col = 2062 
Wasted_Row = 179 
Idle = 20688 

BW Util Bottlenecks: 
RCDc_limit = 459 
RCDWRc_limit = 0 
WTRc_limit = 0 
RTWc_limit = 0 
CCDLc_limit = 1737 
rwq = 0 
CCDLc_limit_alone = 1737 
WTRc_limit_alone = 0 
RTWc_limit_alone = 0 

Commands details: 
total_CMD = 27313 
n_nop = 25065 
Read = 2192 
Write = 0 
L2_Alloc = 0 
L2_WB = 0 
n_act = 36 
n_pre = 20 
n_ref = 4568229571824690154 
n_req = 2192 
total_req = 2192 

Dual Bus Interface Util: 
issued_total_row = 56 
issued_total_col = 2192 
Row_Bus_Util =  0.002050 
CoL_Bus_Util = 0.080255 
Either_Row_CoL_Bus_Util = 0.082305 
Issued_on_Two_Bus_Simul_Util = 0.000000 
issued_two_Eff = 0.000000 
queue_avg = 0.217662 


dram_util_bins: 0 0 0 0 0 0 0 0 0 0
dram_eff_bins: 0 0 0 0 0 0 0 0 0 0
mrqq: max=12 avg=0.217662
Memory Partition 7: 
Cache L2_bank_014:
MSHR contents

Cache L2_bank_015:
MSHR contents

In Dram Latency Queue (total = 0): 
DRAM[7]: 16 bks, busW=4 BL=8 CL=16, tRRD=8 tCCD=2, tRCD=16 tRAS=37 tRP=16 tRC=52
n_cmd=27313 n_nop=25073 n_act=36 n_pre=20 n_ref_event=0 n_req=2184 n_rd=2184 n_rd_L2_A=0 n_write=0 n_wr_bk=0 bw_util=0.1599
n_activity=10580 dram_eff=0.4129
bk0: 180a 26863i bk1: 180a 26865i bk2: 144a 26939i bk3: 144a 26974i bk4: 128a 27020i bk5: 128a 26982i bk6: 128a 27042i bk7: 128a 27007i bk8: 128a 27021i bk9: 128a 27024i bk10: 128a 27030i bk11: 128a 27048i bk12: 128a 27025i bk13: 128a 27039i bk14: 128a 27011i bk15: 128a 27042i 

------------------------------------------------------------------------

Row_Buffer_Locality = 0.990842
Row_Buffer_Locality_read = 0.990842
Row_Buffer_Locality_write = -nan
Bank_Level_Parallism = 1.266854
Bank_Level_Parallism_Col = 1.233750
Bank_Level_Parallism_Ready = 1.059982
write_to_read_ratio_blp_rw_average = 0.000000
GrpLevelPara = 1.233750 

BW Util details:
bwutil = 0.159924 
total_CMD = 27313 
util_bw = 4368 
Wasted_Col = 1943 
Wasted_Row = 151 
Idle = 20851 

BW Util Bottlenecks: 
RCDc_limit = 431 
RCDWRc_limit = 0 
WTRc_limit = 0 
RTWc_limit = 0 
CCDLc_limit = 1667 
rwq = 0 
CCDLc_limit_alone = 1667 
WTRc_limit_alone = 0 
RTWc_limit_alone = 0 

Commands details: 
total_CMD = 27313 
n_nop = 25073 
Read = 2184 
Write = 0 
L2_Alloc = 0 
L2_WB = 0 
n_act = 36 
n_pre = 20 
n_ref = 0 
n_req = 2184 
total_req = 2184 

Dual Bus Interface Util: 
issued_total_row = 56 
issued_total_col = 2184 
Row_Bus_Util =  0.002050 
CoL_Bus_Util = 0.079962 
Either_Row_CoL_Bus_Util = 0.082012 
Issued_on_Two_Bus_Simul_Util = 0.000000 
issued_two_Eff = 0.000000 
queue_avg = 0.207886 


dram_util_bins: 0 0 0 0 0 0 0 0 0 0
dram_eff_bins: 0 0 0 0 0 0 0 0 0 0
mrqq: max=11 avg=0.207886
Memory Partition 8: 
Cache L2_bank_016:
MSHR contents

Cache L2_bank_017:
MSHR contents

In Dram Latency Queue (total = 0): 
DRAM[8]: 16 bks, busW=4 BL=8 CL=16, tRRD=8 tCCD=2, tRCD=16 tRAS=37 tRP=16 tRC=52
n_cmd=27313 n_nop=25073 n_act=36 n_pre=20 n_ref_event=0 n_req=2184 n_rd=2184 n_rd_L2_A=0 n_write=0 n_wr_bk=0 bw_util=0.1599
n_activity=10426 dram_eff=0.419
bk0: 180a 26873i bk1: 180a 26862i bk2: 144a 26979i bk3: 144a 26981i bk4: 128a 27007i bk5: 128a 27012i bk6: 128a 27040i bk7: 128a 27007i bk8: 128a 27029i bk9: 128a 27012i bk10: 128a 27034i bk11: 128a 26986i bk12: 128a 27058i bk13: 128a 27018i bk14: 128a 27036i bk15: 128a 27012i 

------------------------------------------------------------------------

Row_Buffer_Locality = 0.990842
Row_Buffer_Locality_read = 0.990842
Row_Buffer_Locality_write = -nan
Bank_Level_Parallism = 1.260930
Bank_Level_Parallism_Col = 1.237328
Bank_Level_Parallism_Ready = 1.056725
write_to_read_ratio_blp_rw_average = 0.000000
GrpLevelPara = 1.237328 

BW Util details:
bwutil = 0.159924 
total_CMD = 27313 
util_bw = 4368 
Wasted_Col = 1924 
Wasted_Row = 167 
Idle = 20854 

BW Util Bottlenecks: 
RCDc_limit = 415 
RCDWRc_limit = 0 
WTRc_limit = 0 
RTWc_limit = 0 
CCDLc_limit = 1630 
rwq = 0 
CCDLc_limit_alone = 1630 
WTRc_limit_alone = 0 
RTWc_limit_alone = 0 

Commands details: 
total_CMD = 27313 
n_nop = 25073 
Read = 2184 
Write = 0 
L2_Alloc = 0 
L2_WB = 0 
n_act = 36 
n_pre = 20 
n_ref = 0 
n_req = 2184 
total_req = 2184 

Dual Bus Interface Util: 
issued_total_row = 56 
issued_total_col = 2184 
Row_Bus_Util =  0.002050 
CoL_Bus_Util = 0.079962 
Either_Row_CoL_Bus_Util = 0.082012 
Issued_on_Two_Bus_Simul_Util = 0.000000 
issued_two_Eff = 0.000000 
queue_avg = 0.215648 


dram_util_bins: 0 0 0 0 0 0 0 0 0 0
dram_eff_bins: 0 0 0 0 0 0 0 0 0 0
mrqq: max=15 avg=0.215648
Memory Partition 9: 
Cache L2_bank_018:
MSHR contents

Cache L2_bank_019:
MSHR contents

In Dram Latency Queue (total = 0): 
DRAM[9]: 16 bks, busW=4 BL=8 CL=16, tRRD=8 tCCD=2, tRCD=16 tRAS=37 tRP=16 tRC=52
n_cmd=27313 n_nop=25073 n_act=36 n_pre=20 n_ref_event=0 n_req=2184 n_rd=2184 n_rd_L2_A=0 n_write=0 n_wr_bk=0 bw_util=0.1599
n_activity=10132 dram_eff=0.4311
bk0: 180a 26879i bk1: 180a 26857i bk2: 144a 26966i bk3: 144a 26933i bk4: 128a 27015i bk5: 128a 26981i bk6: 128a 27032i bk7: 128a 27005i bk8: 128a 27022i bk9: 128a 27041i bk10: 128a 27062i bk11: 128a 27015i bk12: 128a 27057i bk13: 128a 27019i bk14: 128a 27038i bk15: 128a 27039i 

------------------------------------------------------------------------

Row_Buffer_Locality = 0.990842
Row_Buffer_Locality_read = 0.990842
Row_Buffer_Locality_write = -nan
Bank_Level_Parallism = 1.279260
Bank_Level_Parallism_Col = 1.248853
Bank_Level_Parallism_Ready = 1.047619
write_to_read_ratio_blp_rw_average = 0.000000
GrpLevelPara = 1.248853 

BW Util details:
bwutil = 0.159924 
total_CMD = 27313 
util_bw = 4368 
Wasted_Col = 1855 
Wasted_Row = 148 
Idle = 20942 

BW Util Bottlenecks: 
RCDc_limit = 412 
RCDWRc_limit = 0 
WTRc_limit = 0 
RTWc_limit = 0 
CCDLc_limit = 1584 
rwq = 0 
CCDLc_limit_alone = 1584 
WTRc_limit_alone = 0 
RTWc_limit_alone = 0 

Commands details: 
total_CMD = 27313 
n_nop = 25073 
Read = 2184 
Write = 0 
L2_Alloc = 0 
L2_WB = 0 
n_act = 36 
n_pre = 20 
n_ref = 0 
n_req = 2184 
total_req = 2184 

Dual Bus Interface Util: 
issued_total_row = 56 
issued_total_col = 2184 
Row_Bus_Util =  0.002050 
CoL_Bus_Util = 0.079962 
Either_Row_CoL_Bus_Util = 0.082012 
Issued_on_Two_Bus_Simul_Util = 0.000000 
issued_two_Eff = 0.000000 
queue_avg = 0.212353 


dram_util_bins: 0 0 0 0 0 0 0 0 0 0
dram_eff_bins: 0 0 0 0 0 0 0 0 0 0
mrqq: max=12 avg=0.212353
Memory Partition 10: 
Cache L2_bank_020:
MSHR contents

Cache L2_bank_021:
MSHR contents

In Dram Latency Queue (total = 0): 
DRAM[10]: 16 bks, busW=4 BL=8 CL=16, tRRD=8 tCCD=2, tRCD=16 tRAS=37 tRP=16 tRC=52
n_cmd=27313 n_nop=25073 n_act=36 n_pre=20 n_ref_event=0 n_req=2184 n_rd=2184 n_rd_L2_A=0 n_write=0 n_wr_bk=0 bw_util=0.1599
n_activity=10491 dram_eff=0.4164
bk0: 180a 26896i bk1: 180a 26889i bk2: 144a 26953i bk3: 144a 26945i bk4: 128a 27024i bk5: 128a 26995i bk6: 128a 27021i bk7: 128a 27024i bk8: 128a 27024i bk9: 128a 27041i bk10: 128a 27056i bk11: 128a 27044i bk12: 128a 27026i bk13: 128a 27057i bk14: 128a 27047i bk15: 128a 27037i 

------------------------------------------------------------------------

Row_Buffer_Locality = 0.990842
Row_Buffer_Locality_read = 0.990842
Row_Buffer_Locality_write = -nan
Bank_Level_Parallism = 1.276123
Bank_Level_Parallism_Col = 1.236448
Bank_Level_Parallism_Ready = 1.038444
write_to_read_ratio_blp_rw_average = 0.000000
GrpLevelPara = 1.236448 

BW Util details:
bwutil = 0.159924 
total_CMD = 27313 
util_bw = 4368 
Wasted_Col = 1861 
Wasted_Row = 104 
Idle = 20980 

BW Util Bottlenecks: 
RCDc_limit = 421 
RCDWRc_limit = 0 
WTRc_limit = 0 
RTWc_limit = 0 
CCDLc_limit = 1580 
rwq = 0 
CCDLc_limit_alone = 1580 
WTRc_limit_alone = 0 
RTWc_limit_alone = 0 

Commands details: 
total_CMD = 27313 
n_nop = 25073 
Read = 2184 
Write = 0 
L2_Alloc = 0 
L2_WB = 0 
n_act = 36 
n_pre = 20 
n_ref = 0 
n_req = 2184 
total_req = 2184 

Dual Bus Interface Util: 
issued_total_row = 56 
issued_total_col = 2184 
Row_Bus_Util =  0.002050 
CoL_Bus_Util = 0.079962 
Either_Row_CoL_Bus_Util = 0.082012 
Issued_on_Two_Bus_Simul_Util = 0.000000 
issued_two_Eff = 0.000000 
queue_avg = 0.203603 


dram_util_bins: 0 0 0 0 0 0 0 0 0 0
dram_eff_bins: 0 0 0 0 0 0 0 0 0 0
mrqq: max=14 avg=0.203603
Memory Partition 11: 
Cache L2_bank_022:
MSHR contents

Cache L2_bank_023:
MSHR contents

In Dram Latency Queue (total = 0): 
DRAM[11]: 16 bks, busW=4 BL=8 CL=16, tRRD=8 tCCD=2, tRCD=16 tRAS=37 tRP=16 tRC=52
n_cmd=27313 n_nop=25073 n_act=36 n_pre=20 n_ref_event=0 n_req=2184 n_rd=2184 n_rd_L2_A=0 n_write=0 n_wr_bk=0 bw_util=0.1599
n_activity=10477 dram_eff=0.4169
bk0: 180a 26861i bk1: 180a 26878i bk2: 144a 26971i bk3: 144a 26921i bk4: 128a 26996i bk5: 128a 26957i bk6: 128a 27001i bk7: 128a 26992i bk8: 128a 27015i bk9: 128a 27008i bk10: 128a 27039i bk11: 128a 27052i bk12: 128a 27066i bk13: 128a 27017i bk14: 128a 27060i bk15: 128a 27021i 

------------------------------------------------------------------------

Row_Buffer_Locality = 0.990842
Row_Buffer_Locality_read = 0.990842
Row_Buffer_Locality_write = -nan
Bank_Level_Parallism = 1.282200
Bank_Level_Parallism_Col = 1.252759
Bank_Level_Parallism_Ready = 1.049451
write_to_read_ratio_blp_rw_average = 0.000000
GrpLevelPara = 1.252759 

BW Util details:
bwutil = 0.159924 
total_CMD = 27313 
util_bw = 4368 
Wasted_Col = 1931 
Wasted_Row = 137 
Idle = 20877 

BW Util Bottlenecks: 
RCDc_limit = 438 
RCDWRc_limit = 0 
WTRc_limit = 0 
RTWc_limit = 0 
CCDLc_limit = 1635 
rwq = 0 
CCDLc_limit_alone = 1635 
WTRc_limit_alone = 0 
RTWc_limit_alone = 0 

Commands details: 
total_CMD = 27313 
n_nop = 25073 
Read = 2184 
Write = 0 
L2_Alloc = 0 
L2_WB = 0 
n_act = 36 
n_pre = 20 
n_ref = 0 
n_req = 2184 
total_req = 2184 

Dual Bus Interface Util: 
issued_total_row = 56 
issued_total_col = 2184 
Row_Bus_Util =  0.002050 
CoL_Bus_Util = 0.079962 
Either_Row_CoL_Bus_Util = 0.082012 
Issued_on_Two_Bus_Simul_Util = 0.000000 
issued_two_Eff = 0.000000 
queue_avg = 0.225790 


dram_util_bins: 0 0 0 0 0 0 0 0 0 0
dram_eff_bins: 0 0 0 0 0 0 0 0 0 0
mrqq: max=10 avg=0.22579

========= L2 cache stats =========
L2_cache_bank[0]: Access = 1665, Miss = 1167, Miss_rate = 0.701, Pending_hits = 487, Reservation_fails = 0
L2_cache_bank[1]: Access = 1636, Miss = 1161, Miss_rate = 0.710, Pending_hits = 455, Reservation_fails = 0
L2_cache_bank[2]: Access = 1639, Miss = 1163, Miss_rate = 0.710, Pending_hits = 452, Reservation_fails = 0
L2_cache_bank[3]: Access = 1638, Miss = 1162, Miss_rate = 0.709, Pending_hits = 456, Reservation_fails = 0
L2_cache_bank[4]: Access = 1641, Miss = 1165, Miss_rate = 0.710, Pending_hits = 451, Reservation_fails = 0
L2_cache_bank[5]: Access = 1631, Miss = 1165, Miss_rate = 0.714, Pending_hits = 431, Reservation_fails = 0
[...]
n_cmd=121875 n_nop=110683 n_act=218 n_pre=202 n_ref_event=4568229571824690154 n_req=10586 n_rd=10524 n_rd_L2_A=0 n_write=0 n_wr_bk=248 bw_util=0.1768
n_activity=53665 dram_eff=0.4015
bk0: 723a 118994i bk1: 727a 118893i bk2: 686a 119470i bk3: 684a 119384i bk4: 652a 120245i bk5: 652a 120169i bk6: 640a 120290i bk7: 640a 120279i bk8: 640a 120371i bk9: 640a 120355i bk10: 640a 120341i bk11: 640a 120365i bk12: 640a 120400i bk13: 640a 120394i bk14: 640a 120408i bk15: 640a 120354i 

------------------------------------------------------------------------

Row_Buffer_Locality = 0.980918
Row_Buffer_Locality_read = 0.983276
Row_Buffer_Locality_write = 0.580645
Bank_Level_Parallism = 1.325022
Bank_Level_Parallism_Col = 1.268769
Bank_Level_Parallism_Ready = 1.053628
write_to_read_ratio_blp_rw_average = 0.041779
GrpLevelPara = 1.266962 

BW Util details:
bwutil = 0.176771 
total_CMD = 121875 
util_bw = 21544 
Wasted_Col = 10524 
Wasted_Row = 1469 
Idle = 88338 

BW Util Bottlenecks: 
RCDc_limit = 2356 
RCDWRc_limit = 160 
WTRc_limit = 416 
RTWc_limit = 906 
CCDLc_limit = 8184 
rwq = 0 
CCDLc_limit_alone = 8165 
WTRc_limit_alone = 414 
RTWc_limit_alone = 889 

Commands details: 
total_CMD = 121875 
n_nop = 110683 
Read = 10524 
Write = 0 
L2_Alloc = 0 
L2_WB = 248 
n_act = 218 
n_pre = 202 
n_ref = 4568229571824690154 
n_req = 10586 
total_req = 10772 

Dual Bus Interface Util: 
issued_total_row = 420 
issued_total_col = 10772 
Row_Bus_Util =  0.003446 
CoL_Bus_Util = 0.088386 
Either_Row_CoL_Bus_Util = 0.091832 
Issued_on_Two_Bus_Simul_Util = 0.000000 
issued_two_Eff = 0.000000 
queue_avg = 0.276636 


dram_util_bins: 0 0 0 0 0 0 0 0 0 0
dram_eff_bins: 0 0 0 0 0 0 0 0 0 0
mrqq: max=16 avg=0.276636
Memory Partition 7: 
Cache L2_bank_014:
MSHR contents

Cache L2_bank_015:
MSHR contents

In Dram Latency Queue (total = 0): 
DRAM[7]: 16 bks, busW=4 BL=8 CL=16, tRRD=8 tCCD=2, tRCD=16 tRAS=37 tRP=16 tRC=52
n_cmd=121875 n_nop=110686 n_act=218 n_pre=202 n_ref_event=0 n_req=10584 n_rd=10522 n_rd_L2_A=0 n_write=0 n_wr_bk=248 bw_util=0.1767
n_activity=53261 dram_eff=0.4044
bk0: 723a 118957i bk1: 725a 118676i bk2: 684a 119423i bk3: 686a 119420i bk4: 652a 120198i bk5: 652a 120260i bk6: 640a 120316i bk7: 640a 120279i bk8: 640a 120321i bk9: 640a 120328i bk10: 640a 120361i bk11: 640a 120392i bk12: 640a 120392i bk13: 640a 120368i bk14: 640a 120320i bk15: 640a 120286i 

------------------------------------------------------------------------

Row_Buffer_Locality = 0.980915
Row_Buffer_Locality_read = 0.983273
Row_Buffer_Locality_write = 0.580645
Bank_Level_Parallism = 1.351428
Bank_Level_Parallism_Col = 1.284580
Bank_Level_Parallism_Ready = 1.059631
write_to_read_ratio_blp_rw_average = 0.042924
GrpLevelPara = 1.279738 

BW Util details:
bwutil = 0.176738 
total_CMD = 121875 
util_bw = 21540 
Wasted_Col = 10428 
Wasted_Row = 1344 
Idle = 88563 

BW Util Bottlenecks: 
RCDc_limit = 2325 
RCDWRc_limit = 153 
WTRc_limit = 571 
RTWc_limit = 825 
CCDLc_limit = 8295 
rwq = 0 
CCDLc_limit_alone = 8228 
WTRc_limit_alone = 524 
RTWc_limit_alone = 805 

Commands details: 
total_CMD = 121875 
n_nop = 110686 
Read = 10522 
Write = 0 
L2_Alloc = 0 
L2_WB = 248 
n_act = 218 
n_pre = 202 
n_ref = 0 
n_req = 10584 
total_req = 10770 

Dual Bus Interface Util: 
issued_total_row = 420 
issued_total_col = 10770 
Row_Bus_Util =  0.003446 
CoL_Bus_Util = 0.088369 
Either_Row_CoL_Bus_Util = 0.091807 
Issued_on_Two_Bus_Simul_Util = 0.000008 
issued_two_Eff = 0.000089 
queue_avg = 0.287147 


dram_util_bins: 0 0 0 0 0 0 0 0 0 0
dram_eff_bins: 0 0 0 0 0 0 0 0 0 0
mrqq: max=24 avg=0.287147
Memory Partition 8: 
Cache L2_bank_016:
MSHR contents

Cache L2_bank_017:
MSHR contents

In Dram Latency Queue (total = 0): 
DRAM[8]: 16 bks, busW=4 BL=8 CL=16, tRRD=8 tCCD=2, tRCD=16 tRAS=37 tRP=16 tRC=52
n_cmd=121875 n_nop=110686 n_act=218 n_pre=202 n_ref_event=0 n_req=10584 n_rd=10522 n_rd_L2_A=0 n_write=0 n_wr_bk=248 bw_util=0.1767
n_activity=53107 dram_eff=0.4056
bk0: 727a 118851i bk1: 723a 118889i bk2: 684a 119364i bk3: 684a 119127i bk4: 652a 120230i bk5: 652a 120211i bk6: 640a 120336i bk7: 640a 120270i bk8: 640a 120367i bk9: 640a 120402i bk10: 640a 120395i bk11: 640a 120294i bk12: 640a 120407i bk13: 640a 120410i bk14: 640a 120377i bk15: 640a 120396i 

------------------------------------------------------------------------

Row_Buffer_Locality = 0.980915
Row_Buffer_Locality_read = 0.983273
Row_Buffer_Locality_write = 0.580645
Bank_Level_Parallism = 1.344988
Bank_Level_Parallism_Col = 1.287261
Bank_Level_Parallism_Ready = 1.055478
write_to_read_ratio_blp_rw_average = 0.043078
GrpLevelPara = 1.283985 

BW Util details:
bwutil = 0.176738 
total_CMD = 121875 
util_bw = 21540 
Wasted_Col = 10341 
Wasted_Row = 1471 
Idle = 88523 

BW Util Bottlenecks: 
RCDc_limit = 2307 
RCDWRc_limit = 149 
WTRc_limit = 463 
RTWc_limit = 911 
CCDLc_limit = 8032 
rwq = 0 
CCDLc_limit_alone = 7993 
WTRc_limit_alone = 463 
RTWc_limit_alone = 872 

Commands details: 
total_CMD = 121875 
n_nop = 110686 
Read = 10522 
Write = 0 
L2_Alloc = 0 
L2_WB = 248 
n_act = 218 
n_pre = 202 
n_ref = 0 
n_req = 10584 
total_req = 10770 

Dual Bus Interface Util: 
issued_total_row = 420 
issued_total_col = 10770 
Row_Bus_Util =  0.003446 
CoL_Bus_Util = 0.088369 
Either_Row_CoL_Bus_Util = 0.091807 
Issued_on_Two_Bus_Simul_Util = 0.000008 
issued_two_Eff = 0.000089 
queue_avg = 0.284939 


dram_util_bins: 0 0 0 0 0 0 0 0 0 0
dram_eff_bins: 0 0 0 0 0 0 0 0 0 0
mrqq: max=15 avg=0.284939
Memory Partition 9: 
Cache L2_bank_018:
MSHR contents

Cache L2_bank_019:
MSHR contents

In Dram Latency Queue (total = 0): 
DRAM[9]: 16 bks, busW=4 BL=8 CL=16, tRRD=8 tCCD=2, tRCD=16 tRAS=37 tRP=16 tRC=52
n_cmd=121875 n_nop=110714 n_act=202 n_pre=186 n_ref_event=0 n_req=10587 n_rd=10525 n_rd_L2_A=0 n_write=0 n_wr_bk=248 bw_util=0.1768
n_activity=53098 dram_eff=0.4058
bk0: 724a 119041i bk1: 727a 119046i bk2: 686a 119341i bk3: 684a 119353i bk4: 652a 120246i bk5: 652a 120200i bk6: 640a 120311i bk7: 640a 120320i bk8: 640a 120328i bk9: 640a 120283i bk10: 640a 120410i bk11: 640a 120339i bk12: 640a 120385i bk13: 640a 120403i bk14: 640a 120386i bk15: 640a 120315i 

------------------------------------------------------------------------

Row_Buffer_Locality = 0.982431
Row_Buffer_Locality_read = 0.984038
Row_Buffer_Locality_write = 0.709677
Bank_Level_Parallism = 1.347616
Bank_Level_Parallism_Col = 1.291972
Bank_Level_Parallism_Ready = 1.055282
write_to_read_ratio_blp_rw_average = 0.044498
GrpLevelPara = 1.287609 

BW Util details:
bwutil = 0.176788 
total_CMD = 121875 
util_bw = 21546 
Wasted_Col = 10267 
Wasted_Row = 1278 
Idle = 88784 

BW Util Bottlenecks: 
RCDc_limit = 2242 
RCDWRc_limit = 111 
WTRc_limit = 502 
RTWc_limit = 967 
CCDLc_limit = 8139 
rwq = 0 
CCDLc_limit_alone = 8084 
WTRc_limit_alone = 489 
RTWc_limit_alone = 925 

Commands details: 
total_CMD = 121875 
n_nop = 110714 
Read = 10525 
Write = 0 
L2_Alloc = 0 
L2_WB = 248 
n_act = 202 
n_pre = 186 
n_ref = 0 
n_req = 10587 
total_req = 10773 

Dual Bus Interface Util: 
issued_total_row = 388 
issued_total_col = 10773 
Row_Bus_Util =  0.003184 
CoL_Bus_Util = 0.088394 
Either_Row_CoL_Bus_Util = 0.091577 
Issued_on_Two_Bus_Simul_Util = 0.000000 
issued_two_Eff = 0.000000 
queue_avg = 0.321797 


dram_util_bins: 0 0 0 0 0 0 0 0 0 0
dram_eff_bins: 0 0 0 0 0 0 0 0 0 0
mrqq: max=28 avg=0.321797
Memory Partition 10: 
Cache L2_bank_020:
MSHR contents

Cache L2_bank_021:
MSHR contents

In Dram Latency Queue (total = 0): 
DRAM[10]: 16 bks, busW=4 BL=8 CL=16, tRRD=8 tCCD=2, tRCD=16 tRAS=37 tRP=16 tRC=52
n_cmd=121875 n_nop=110698 n_act=212 n_pre=196 n_ref_event=0 n_req=10584 n_rd=10522 n_rd_L2_A=0 n_write=0 n_wr_bk=248 bw_util=0.1767
n_activity=53207 dram_eff=0.4048
bk0: 723a 118967i bk1: 725a 118870i bk2: 684a 119347i bk3: 686a 119317i bk4: 652a 120279i bk5: 652a 120191i bk6: 640a 120321i bk7: 640a 120273i bk8: 640a 120303i bk9: 640a 120347i bk10: 640a 120394i bk11: 640a 120317i bk12: 640a 120367i bk13: 640a 120424i bk14: 640a 120391i bk15: 640a 120355i 

------------------------------------------------------------------------

Row_Buffer_Locality = 0.981481
Row_Buffer_Locality_read = 0.983558
Row_Buffer_Locality_write = 0.629032
Bank_Level_Parallism = 1.354580
Bank_Level_Parallism_Col = 1.289640
Bank_Level_Parallism_Ready = 1.050913
write_to_read_ratio_blp_rw_average = 0.046459
GrpLevelPara = 1.285893 

BW Util details:
bwutil = 0.176738 
total_CMD = 121875 
util_bw = 21540 
Wasted_Col = 10274 
Wasted_Row = 1231 
Idle = 88830 

BW Util Bottlenecks: 
RCDc_limit = 2248 
RCDWRc_limit = 131 
WTRc_limit = 394 
RTWc_limit = 966 
CCDLc_limit = 8057 
rwq = 0 
CCDLc_limit_alone = 8010 
WTRc_limit_alone = 385 
RTWc_limit_alone = 928 

Commands details: 
total_CMD = 121875 
n_nop = 110698 
Read = 10522 
Write = 0 
L2_Alloc = 0 
L2_WB = 248 
n_act = 212 
n_pre = 196 
n_ref = 0 
n_req = 10584 
total_req = 10770 

Dual Bus Interface Util: 
issued_total_row = 408 
issued_total_col = 10770 
Row_Bus_Util =  0.003348 
CoL_Bus_Util = 0.088369 
Either_Row_CoL_Bus_Util = 0.091709 
Issued_on_Two_Bus_Simul_Util = 0.000008 
issued_two_Eff = 0.000089 
queue_avg = 0.295294 


dram_util_bins: 0 0 0 0 0 0 0 0 0 0
dram_eff_bins: 0 0 0 0 0 0 0 0 0 0
mrqq: max=18 avg=0.295294
Memory Partition 11: 
Cache L2_bank_022:
MSHR contents

Cache L2_bank_023:
MSHR contents

In Dram Latency Queue (total = 0): 
DRAM[11]: 16 bks, busW=4 BL=8 CL=16, tRRD=8 tCCD=2, tRCD=16 tRAS=37 tRP=16 tRC=52
n_cmd=121875 n_nop=110712 n_act=206 n_pre=190 n_ref_event=0 n_req=10582 n_rd=10520 n_rd_L2_A=0 n_write=0 n_wr_bk=248 bw_util=0.1767
n_activity=52536 dram_eff=0.4099
bk0: 725a 118857i bk1: 723a 119005i bk2: 684a 119468i bk3: 684a 119387i bk4: 652a 120205i bk5: 652a 120131i bk6: 640a 120279i bk7: 640a 120306i bk8: 640a 120328i bk9: 640a 120350i bk10: 640a 120370i bk11: 640a 120354i bk12: 640a 120408i bk13: 640a 120353i bk14: 640a 120375i bk15: 640a 120339i 

------------------------------------------------------------------------

Row_Buffer_Locality = 0.982045
Row_Buffer_Locality_read = 0.983840
Row_Buffer_Locality_write = 0.677419
Bank_Level_Parallism = 1.351420
Bank_Level_Parallism_Col = 1.296049
Bank_Level_Parallism_Ready = 1.047601
write_to_read_ratio_blp_rw_average = 0.047360
GrpLevelPara = 1.293262 

BW Util details:
bwutil = 0.176706 
total_CMD = 121875 
util_bw = 21536 
Wasted_Col = 10148 
Wasted_Row = 1316 
Idle = 88875 

BW Util Bottlenecks: 
RCDc_limit = 2282 
RCDWRc_limit = 120 
WTRc_limit = 387 
RTWc_limit = 967 
CCDLc_limit = 7962 
rwq = 0 
CCDLc_limit_alone = 7929 
WTRc_limit_alone = 383 
RTWc_limit_alone = 938 

Commands details: 
total_CMD = 121875 
n_nop = 110712 
Read = 10520 
Write = 0 
L2_Alloc = 0 
L2_WB = 248 
n_act = 206 
n_pre = 190 
n_ref = 0 
n_req = 10582 
total_req = 10768 

Dual Bus Interface Util: 
issued_total_row = 396 
issued_total_col = 10768 
Row_Bus_Util =  0.003249 
CoL_Bus_Util = 0.088353 
Either_Row_CoL_Bus_Util = 0.091594 
Issued_on_Two_Bus_Simul_Util = 0.000008 
issued_two_Eff = 0.000090 
queue_avg = 0.328279 


dram_util_bins: 0 0 0 0 0 0 0 0 0 0
dram_eff_bins: 0 0 0 0 0 0 0 0 0 0
mrqq: max=31 avg=0.328279

========= L2 cache stats =========
L2_cache_bank[0]: Access = 7824, Miss = 5563, Miss_rate = 0.711, Pending_hits = 1933, Reservation_fails = 0
L2_cache_bank[1]: Access = 7783, Miss = 5551, Miss_rate = 0.713, Pending_hits = 1909, Reservation_fails = 0
L2_cache_bank[2]: Access = 7817, Miss = 5547, Miss_rate = 0.710, Pending_hits = 1943, Reservation_fails = 0
L2_cache_bank[3]: Access = 7814, Miss = 5546, Miss_rate = 0.710, Pending_hits = 1962, Reservation_fails = 0
L2_cache_bank[4]: Access = 7804, Miss = 5550, Miss_rate = 0.711, Pending_hits = 1926, Reservation_fails = 0
L2_cache_bank[5]: Access = 7803, Miss = 5545, Miss_rate = 0.711, Pending_hits = 1908, Reservation_fails = 0
L2_cache_bank[6]: Access = 7838, Miss = 5547, Miss_rate = 0.708, Pending_hits = 1950, Reservation_fails = 0
L2_cache_bank[7]: Access = 7825, Miss = 5553, Miss_rate = 0.710, Pending_hits = 1916, Reservation_fails = 0
L2_cache_bank[8]: Access = 7765, Miss = 5548, Miss_rate = 0.714, Pending_hits = 1885, Reservation_fails = 0
L2_cache_bank[9]: Access = 7785, Miss = 5549, Miss_rate = 0.713, Pending_hits = 1920, Reservation_fails = 0
L2_cache_bank[10]: Access = 7784, Miss = 5556, Miss_rate = 0.714, Pending_hits = 1920, Reservation_fails = 0
L2_cache_bank[11]: Access = 7757, Miss = 5544, Miss_rate = 0.715, Pending_hits = 1892, Reservation_fails = 0
L2_cache_bank[12]: Access = 7768, Miss = 5549, Miss_rate = 0.714, Pending_hits = 1893, Reservation_fails = 0
L2_cache_bank[13]: Access = 7785, Miss = 5553, Miss_rate = 0.713, Pending_hits = 1925, Reservation_fails = 0
L2_cache_bank[14]: Access = 7749, Miss = 5544, Miss_rate = 0.715, Pending_hits = 1898, Reservation_fails = 0
L2_cache_bank[15]: Access = 7755, Miss = 5553, Miss_rate = 0.716, Pending_hits = 1910, Reservation_fails = 0
L2_cache_bank[16]: Access = 7769, Miss = 5550, Miss_rate = 0.714, Pending_hits = 1932, Reservation_fails = 0
L2_cache_bank[17]: Access = 7746, Miss = 5543, Miss_rate = 0.716, Pending_hits = 1893, Reservation_fails = 0
L2_cache_bank[18]: Access = 7730, Miss = 5549, Miss_rate = 0.718, Pending_hits = 1867, Reservation_fails = 0
L2_cache_bank[19]: Access = 7744, Miss = 5549, Miss_rate = 0.717, Pending_hits = 1883, Reservation_fails = 0
L2_cache_bank[20]: Access = 7743, Miss = 5543, Miss_rate = 0.716, Pending_hits = 1879, Reservation_fails = 0
L2_cache_bank[21]: Access = 7723, Miss = 5551, Miss_rate = 0.719, Pending_hits = 1839, Reservation_fails = 0
L2_cache_bank[22]: Access = 7731, Miss = 5544, Miss_rate = 0.717, Pending_hits = 1844, Reservation_fails = 0
L2_cache_bank[23]: Access = 7739, Miss = 5542, Miss_rate = 0.716, Pending_hits = 1867, Reservation_fails = 0
L2_total_cache_accesses = 186581
L2_total_cache_misses = 133169
L2_total_cache_miss_rate = 0.7137
L2_total_cache_pending_hits = 45694
L2_total_cache_reservation_fails = 0
L2_total_cache_breakdown:
	L2_cache_stats_breakdown[GLOBAL_ACC_R][HIT] = 6723
	L2_cache_stats_breakdown[GLOBAL_ACC_R][HIT_RESERVED] = 45272
	L2_cache_stats_breakdown[GLOBAL_ACC_R][MISS] = 31251
	L2_cache_stats_breakdown[GLOBAL_ACC_R][RESERVATION_FAIL] = 0
	L2_cache_stats_breakdown[GLOBAL_ACC_R][SECTOR_MISS] = 95024
	L2_cache_stats_breakdown[LOCAL_ACC_R][HIT] = 0
	L2_cache_stats_breakdown[LOCAL_ACC_R][HIT_RESERVED] = 0
	L2_cache_stats_breakdown[LOCAL_ACC_R][MISS] = 0
	L2_cache_stats_breakdown[LOCAL_ACC_R][RESERVATION_FAIL] = 0
	L2_cache_stats_breakdown[LOCAL_ACC_R][SECTOR_MISS] = 0
	L2_cache_stats_breakdown[CONST_ACC_R][HIT] = 0
	L2_cache_stats_breakdown[CONST_ACC_R][HIT_RESERVED] = 26
	L2_cache_stats_breakdown[CONST_ACC_R][MISS] = 1
	L2_cache_stats_breakdown[CONST_ACC_R][RESERVATION_FAIL] = 0
	L2_cache_stats_breakdown[CONST_ACC_R][SECTOR_MISS] = 1
	L2_cache_stats_breakdown[TEXTURE_ACC_R][HIT] = 0
	L2_cache_stats_breakdown[TEXTURE_ACC_R][HIT_RESERVED] = 0
	L2_cache_stats_breakdown[TEXTURE_ACC_R][MISS] = 0
	L2_cache_stats_breakdown[TEXTURE_ACC_R][RESERVATION_FAIL] = 0
	L2_cache_stats_breakdown[TEXTURE_ACC_R][SECTOR_MISS] = 0
	L2_cache_stats_breakdown[GLOBAL_ACC_W][HIT] = 975
	L2_cache_stats_breakdown[GLOBAL_ACC_W][HIT_RESERVED] = 0
	L2_cache_stats_breakdown[GLOBAL_ACC_W][MISS] = 1368
	L2_cache_stats_breakdown[GLOBAL_ACC_W][RESERVATION_FAIL] = 0
	L2_cache_stats_breakdown[GLOBAL_ACC_W][SECTOR_MISS] = 5492
	L2_cache_stats_breakdown[LOCAL_ACC_W][HIT] = 0
	L2_cache_stats_breakdown[LOCAL_ACC_W][HIT_RESERVED] = 0
	L2_cache_stats_breakdown[LOCAL_ACC_W][MISS] = 0
	L2_cache_stats_breakdown[LOCAL_ACC_W][RESERVATION_FAIL] = 0
	L2_cache_stats_breakdown[LOCAL_ACC_W][SECTOR_MISS] = 0
	L2_cache_stats_breakdown[L1_WRBK_ACC][HIT] = 0
	L2_cache_stats_breakdown[L1_WRBK_ACC][HIT_RESERVED] = 0
	L2_cache_stats_breakdown[L1_WRBK_ACC][MISS] = 0
	L2_cache_stats_breakdown[L1_WRBK_ACC][RESERVATION_FAIL] = 0
	L2_cache_stats_breakdown[L1_WRBK_ACC][SECTOR_MISS] = 0
	L2_cache_stats_breakdown[L2_WRBK_ACC][HIT] = 0
	L2_cache_stats_breakdown[L2_WRBK_ACC][HIT_RESERVED] = 0
	L2_cache_stats_breakdown[L2_WRBK_ACC][MISS] = 0
	L2_cache_stats_breakdown[L2_WRBK_ACC][RESERVATION_FAIL] = 0
	L2_cache_stats_breakdown[L2_WRBK_ACC][SECTOR_MISS] = 0
	L2_cache_stats_breakdown[INST_ACC_R][HIT] = 20
	L2_cache_stats_breakdown[INST_ACC_R][HIT_RESERVED] = 396
	L2_cache_stats_breakdown[INST_ACC_R][MISS] = 8
	L2_cache_stats_breakdown[INST_ACC_R][RESERVATION_FAIL] = 0
	L2_cache_stats_breakdown[INST_ACC_R][SECTOR_MISS] = 24
	L2_cache_stats_breakdown[L1_WR_ALLOC_R][HIT] = 0
	L2_cache_stats_breakdown[L1_WR_ALLOC_R][HIT_RESERVED] = 0
	L2_cache_stats_breakdown[L1_WR_ALLOC_R][MISS] = 0
	L2_cache_stats_breakdown[L1_WR_ALLOC_R][RESERVATION_FAIL] = 0
	L2_cache_stats_breakdown[L1_WR_ALLOC_R][SECTOR_MISS] = 0
	L2_cache_stats_breakdown[L2_WR_ALLOC_R][HIT] = 0
	L2_cache_stats_breakdown[L2_WR_ALLOC_R][HIT_RESERVED] = 0
	L2_cache_stats_breakdown[L2_WR_ALLOC_R][MISS] = 0
	L2_cache_stats_breakdown[L2_WR_ALLOC_R][RESERVATION_FAIL] = 0
	L2_cache_stats_breakdown[L2_WR_ALLOC_R][SECTOR_MISS] = 0
	L2_cache_stats_breakdown[GLOBAL_ACC_R][TOTAL_ACCESS] = 178270
	L2_cache_stats_breakdown[CONST_ACC_R][TOTAL_ACCESS] = 28
	L2_cache_stats_breakdown[GLOBAL_ACC_W][TOTAL_ACCESS] = 7835
	L2_cache_stats_breakdown[INST_ACC_R][TOTAL_ACCESS] = 448
L2_total_cache_reservation_fail_breakdown:
L2_cache_data_port_util = 0.005
L2_cache_fill_port_util = 0.077

icnt_total_pkts_mem_to_simt=186581
icnt_total_pkts_simt_to_mem=186231
LD_mem_lat_dist  0 0 0 0 0 0 0 0 0 0 0 0 0 0 0 0 0 0 0 0 0 0 0 0 0 0 0
ST_mem_lat_dist  0 0 0 0 0 0 0 0 0 0 0 0 0 0 0 0 0 0 0 0 0 0 0 0 0 0 0
----------------------------Interconnect-DETAILS--------------------------------
Class 0:
Packet latency average = 6.87042
	minimum = 5
	maximum = 54
Network latency average = 6.87042
	minimum = 5
	maximum = 54
Slowest packet = 369854
Flit latency average = 6.87042
	minimum = 5
	maximum = 54
Slowest flit = 369854
Fragmentation average = 0
	minimum = 0
	maximum = 0
Injected packet rate average = 0.14319
	minimum = 0.110583 (at node 35)
	maximum = 0.248733 (at node 7)
Accepted packet rate average = 0.14319
	minimum = 0.110583 (at node 35)
	maximum = 0.248733 (at node 7)
Injected flit rate average = 0.14319
	minimum = 0.110583 (at node 35)
	maximum = 0.248733 (at node 7)
Accepted flit rate average= 0.14319
	minimum = 0.110583 (at node 35)
	maximum = 0.248733 (at node 7)
Injected packet length average = 1
Accepted packet length average = 1
Total in-flight flits = 0 (0 measured)
====== Overall Traffic Statistics ======
====== Traffic class 0 ======
Packet latency average = 7.57908 (5 samples)
	minimum = 5 (5 samples)
	maximum = 66.6 (5 samples)
Network latency average = 7.57803 (5 samples)
	minimum = 5 (5 samples)
	maximum = 66.6 (5 samples)
Flit latency average = 7.57803 (5 samples)
	minimum = 5 (5 samples)
	maximum = 66.6 (5 samples)
Fragmentation average = 0 (5 samples)
	minimum = 0 (5 samples)
	maximum = 0 (5 samples)
Injected packet rate average = 0.144797 (5 samples)
	minimum = 0.113393 (5 samples)
	maximum = 0.240325 (5 samples)
Accepted packet rate average = 0.144797 (5 samples)
	minimum = 0.113393 (5 samples)
	maximum = 0.240654 (5 samples)
Injected flit rate average = 0.144797 (5 samples)
	minimum = 0.113393 (5 samples)
	maximum = 0.240325 (5 samples)
Accepted flit rate average = 0.144797 (5 samples)
	minimum = 0.113393 (5 samples)
	maximum = 0.240654 (5 samples)
Injected packet size average = 1 (5 samples)
Accepted packet size average = 1 (5 samples)
Hops average = 1 (5 samples)
----------------------------END-of-Interconnect-DETAILS-------------------------


gpgpu_simulation_time = 0 days, 0 hrs, 1 min, 55 sec (115 sec)
gpgpu_simulation_rate = 547074 (inst/sec)
gpgpu_simulation_rate = 590 (cycle/sec)
gpgpu_silicon_slowdown = 1418644x
GPGPU-Sim: synchronize waiting for inactive GPU simulation
GPGPU-Sim API: Stream Manager State
GPGPU-Sim: detected inactive GPU simulation thread
GPGPU-Sim: *** exit detected ***
