

        *** GPGPU-Sim Simulator Version 4.0.0  [build gpgpu-sim_git-commit-90ec3399763d7c8512cfe7dc193473086c38ca38_modified_0.0] ***


GPGPU-Sim PTX: simulation mode 0 (can change with PTX_SIM_MODE_FUNC environment variable:
               1=functional simulation only, 0=detailed performance simulator)
GPGPU-Sim PTX: overriding embedded ptx with ptx file (PTX_SIM_USE_PTX_FILE is set)
GPGPU-Sim: Configuration options:

-save_embedded_ptx                      0 # saves ptx files embedded in binary as <n>.ptx
-keep                                   0 # keep intermediate files created by GPGPU-Sim when interfacing with external programs
-gpgpu_ptx_save_converted_ptxplus                    0 # Saved converted ptxplus to a file
-gpgpu_occupancy_sm_number                   20 # The SM number to pass to ptxas when getting register usage for computing GPU occupancy. This parameter is required in the config.
-ptx_opcode_latency_int      4,13,4,5,145,32 # Opcode latencies for integers <ADD,MAX,MUL,MAD,DIV,SHFL>Default 1,1,19,25,145,32
-ptx_opcode_latency_fp          4,13,4,5,39 # Opcode latencies for single precision floating points <ADD,MAX,MUL,MAD,DIV>Default 1,1,1,1,30
-ptx_opcode_latency_dp         8,19,8,8,330 # Opcode latencies for double precision floating points <ADD,MAX,MUL,MAD,DIV>Default 8,8,8,8,335
-ptx_opcode_latency_sfu                    8 # Opcode latencies for SFU instructionsDefault 8
-ptx_opcode_latency_tesnor                   64 # Opcode latencies for Tensor instructionsDefault 64
-ptx_opcode_initiation_int          1,2,2,1,8,4 # Opcode initiation intervals for integers <ADD,MAX,MUL,MAD,DIV,SHFL>Default 1,1,4,4,32,4
-ptx_opcode_initiation_fp            1,2,1,1,4 # Opcode initiation intervals for single precision floating points <ADD,MAX,MUL,MAD,DIV>Default 1,1,1,1,5
-ptx_opcode_initiation_dp         8,16,8,8,130 # Opcode initiation intervals for double precision floating points <ADD,MAX,MUL,MAD,DIV>Default 8,8,8,8,130
-ptx_opcode_initiation_sfu                    8 # Opcode initiation intervals for sfu instructionsDefault 8
-ptx_opcode_initiation_tensor                   64 # Opcode initiation intervals for tensor instructionsDefault 64
-cdp_latency         7200,8000,100,12000,1600 # CDP API latency <cudaStreamCreateWithFlags, cudaGetParameterBufferV2_init_perWarp, cudaGetParameterBufferV2_perKernel, cudaLaunchDeviceV2_init_perWarp, cudaLaunchDevicV2_perKernel>Default 7200,8000,100,12000,1600
-network_mode                           1 # Interconnection network mode
-inter_config_file   config_fermi_islip.icnt # Interconnection network config file
-icnt_in_buffer_limit                   64 # in_buffer_limit
-icnt_out_buffer_limit                   64 # out_buffer_limit
-icnt_subnets                           2 # subnets
-icnt_arbiter_algo                      1 # arbiter_algo
-icnt_verbose                           0 # inct_verbose
-icnt_grant_cycles                      1 # grant_cycles
-gpgpu_ptx_use_cuobjdump                    1 # Use cuobjdump to extract ptx and sass from binaries
-gpgpu_experimental_lib_support                    0 # Try to extract code from cuda libraries [Broken because of unknown cudaGetExportTable]
-checkpoint_option                      0 #  checkpointing flag (0 = no checkpoint)
-checkpoint_kernel                      1 #  checkpointing during execution of which kernel (1- 1st kernel)
-checkpoint_CTA                         0 #  checkpointing after # of CTA (< less than total CTA)
-resume_option                          0 #  resume flag (0 = no resume)
-resume_kernel                          0 #  Resume from which kernel (1= 1st kernel)
-resume_CTA                             0 #  resume from which CTA 
-checkpoint_CTA_t                       0 #  resume from which CTA 
-checkpoint_insn_Y                      0 #  resume from which CTA 
-gpgpu_ptx_convert_to_ptxplus                    0 # Convert SASS (native ISA) to ptxplus and run ptxplus
-gpgpu_ptx_force_max_capability                   20 # Force maximum compute capability
-gpgpu_ptx_inst_debug_to_file                    0 # Dump executed instructions' debug information to file
-gpgpu_ptx_inst_debug_file       inst_debug.txt # Executed instructions' debug output file
-gpgpu_ptx_inst_debug_thread_uid                    1 # Thread UID for executed instructions' debug output
-gpgpu_simd_model                       1 # 1 = post-dominator
-gpgpu_shader_core_pipeline              1536:32 # shader core pipeline config, i.e., {<nthread>:<warpsize>}
-gpgpu_tex_cache:l1  N:4:128:24,L:R:m:N:L,T:128:4,128:2 # per-shader L1 texture cache  (READ-ONLY) config  {<nsets>:<bsize>:<assoc>,<rep>:<wr>:<alloc>:<wr_alloc>,<mshr>:<N>:<merge>,<mq>:<rf>}
-gpgpu_const_cache:l1 N:64:64:2,L:R:f:N:L,S:2:32,4 # per-shader L1 constant memory cache  (READ-ONLY) config  {<nsets>:<bsize>:<assoc>,<rep>:<wr>:<alloc>:<wr_alloc>,<mshr>:<N>:<merge>,<mq>} 
-gpgpu_cache:il1     N:4:128:4,L:R:f:N:L,S:2:32,4 # shader L1 instruction cache config  {<nsets>:<bsize>:<assoc>,<rep>:<wr>:<alloc>:<wr_alloc>,<mshr>:<N>:<merge>,<mq>} 
-gpgpu_cache:dl1     N:32:128:4,L:L:m:N:H,S:64:8,8 # per-shader L1 data cache config  {<nsets>:<bsize>:<assoc>,<rep>:<wr>:<alloc>:<wr_alloc>,<mshr>:<N>:<merge>,<mq> | none}
-gpgpu_l1_banks                         1 # The number of L1 cache banks
-gpgpu_l1_banks_byte_interleaving                   32 # l1 banks byte interleaving granularity
-gpgpu_l1_banks_hashing_function                    0 # l1 banks hashing function
-gpgpu_l1_latency                      35 # L1 Hit Latency
-gpgpu_smem_latency                    26 # smem Latency
-gpgpu_cache:dl1PrefL1                 none # per-shader L1 data cache config  {<nsets>:<bsize>:<assoc>,<rep>:<wr>:<alloc>:<wr_alloc>,<mshr>:<N>:<merge>,<mq> | none}
-gpgpu_cache:dl1PrefShared                 none # per-shader L1 data cache config  {<nsets>:<bsize>:<assoc>,<rep>:<wr>:<alloc>:<wr_alloc>,<mshr>:<N>:<merge>,<mq> | none}
-gpgpu_gmem_skip_L1D                    0 # global memory access skip L1D cache (implements -Xptxas -dlcm=cg, default=no skip)
-gpgpu_perfect_mem                      0 # enable perfect memory mode (no cache miss)
-n_regfile_gating_group                    4 # group of lanes that should be read/written together)
-gpgpu_clock_gated_reg_file                    0 # enable clock gated reg file for power calculations
-gpgpu_clock_gated_lanes                    0 # enable clock gated lanes for power calculations
-gpgpu_shader_registers                32768 # Number of registers per shader core. Limits number of concurrent CTAs. (default 8192)
-gpgpu_registers_per_block                 8192 # Maximum number of registers per CTA. (default 8192)
-gpgpu_ignore_resources_limitation                    0 # gpgpu_ignore_resources_limitation (default 0)
-gpgpu_shader_cta                       8 # Maximum number of concurrent CTAs in shader (default 8)
-gpgpu_num_cta_barriers                   16 # Maximum number of named barriers per CTA (default 16)
-gpgpu_n_clusters                      15 # number of processing clusters
-gpgpu_n_cores_per_cluster                    1 # number of simd cores per cluster
-gpgpu_n_cluster_ejection_buffer_size                   32 # number of packets in ejection buffer
-gpgpu_n_ldst_response_buffer_size                    2 # number of response packets in ld/st unit ejection buffer
-gpgpu_shmem_per_block                49152 # Size of shared memory per thread block or CTA (default 48kB)
-gpgpu_shmem_size                   49152 # Size of shared memory per shader core (default 16kB)
-gpgpu_adaptive_cache_config                    0 # adaptive_cache_config
-gpgpu_shmem_sizeDefault                49152 # Size of shared memory per shader core (default 16kB)
-gpgpu_shmem_size_PrefL1                16384 # Size of shared memory per shader core (default 16kB)
-gpgpu_shmem_size_PrefShared                16384 # Size of shared memory per shader core (default 16kB)
-gpgpu_shmem_num_banks                   32 # Number of banks in the shared memory in each shader core (default 16)
-gpgpu_shmem_limited_broadcast                    0 # Limit shared memory to do one broadcast per cycle (default on)
-gpgpu_shmem_warp_parts                    1 # Number of portions a warp is divided into for shared memory bank conflict check 
-gpgpu_mem_unit_ports                    1 # The number of memory transactions allowed per core cycle
-gpgpu_shmem_warp_parts                    1 # Number of portions a warp is divided into for shared memory bank conflict check 
-gpgpu_warpdistro_shader                   -1 # Specify which shader core to collect the warp size distribution from
-gpgpu_warp_issue_shader                    0 # Specify which shader core to collect the warp issue distribution from
-gpgpu_local_mem_map                    1 # Mapping from local memory space address to simulated GPU physical address space (default = enabled)
-gpgpu_num_reg_banks                   16 # Number of register banks (default = 8)
-gpgpu_reg_bank_use_warp_id                    0 # Use warp ID in mapping registers to banks (default = off)
-gpgpu_sub_core_model                    0 # Sub Core Volta/Pascal model (default = off)
-gpgpu_enable_specialized_operand_collector                    1 # enable_specialized_operand_collector
-gpgpu_operand_collector_num_units_sp                    6 # number of collector units (default = 4)
-gpgpu_operand_collector_num_units_dp                    0 # number of collector units (default = 0)
-gpgpu_operand_collector_num_units_sfu                    8 # number of collector units (default = 4)
-gpgpu_operand_collector_num_units_int                    0 # number of collector units (default = 0)
-gpgpu_operand_collector_num_units_tensor_core                    4 # number of collector units (default = 4)
-gpgpu_operand_collector_num_units_mem                    2 # number of collector units (default = 2)
-gpgpu_operand_collector_num_units_gen                    0 # number of collector units (default = 0)
-gpgpu_operand_collector_num_in_ports_sp                    2 # number of collector unit in ports (default = 1)
-gpgpu_operand_collector_num_in_ports_dp                    0 # number of collector unit in ports (default = 0)
-gpgpu_operand_collector_num_in_ports_sfu                    1 # number of collector unit in ports (default = 1)
-gpgpu_operand_collector_num_in_ports_int                    0 # number of collector unit in ports (default = 0)
-gpgpu_operand_collector_num_in_ports_tensor_core                    1 # number of collector unit in ports (default = 1)
-gpgpu_operand_collector_num_in_ports_mem                    1 # number of collector unit in ports (default = 1)
-gpgpu_operand_collector_num_in_ports_gen                    0 # number of collector unit in ports (default = 0)
-gpgpu_operand_collector_num_out_ports_sp                    2 # number of collector unit in ports (default = 1)
-gpgpu_operand_collector_num_out_ports_dp                    0 # number of collector unit in ports (default = 0)
-gpgpu_operand_collector_num_out_ports_sfu                    1 # number of collector unit in ports (default = 1)
-gpgpu_operand_collector_num_out_ports_int                    0 # number of collector unit in ports (default = 0)
-gpgpu_operand_collector_num_out_ports_tensor_core                    1 # number of collector unit in ports (default = 1)
-gpgpu_operand_collector_num_out_ports_mem                    1 # number of collector unit in ports (default = 1)
-gpgpu_operand_collector_num_out_ports_gen                    0 # number of collector unit in ports (default = 0)
-gpgpu_coalesce_arch                   20 # Coalescing arch (GT200 = 13, Fermi = 20)
-gpgpu_num_sched_per_core                    2 # Number of warp schedulers per core
-gpgpu_max_insn_issue_per_warp                    1 # Max number of instructions that can be issued per warp in one cycle by scheduler (either 1 or 2)
-gpgpu_dual_issue_diff_exec_units                    1 # should dual issue use two different execution unit resources (Default = 1)
-gpgpu_simt_core_sim_order                    1 # Select the simulation order of cores in a cluster (0=Fix, 1=Round-Robin)
-gpgpu_pipeline_widths 2,0,0,1,1,2,0,0,1,1,2 # Pipeline widths ID_OC_SP,ID_OC_DP,ID_OC_INT,ID_OC_SFU,ID_OC_MEM,OC_EX_SP,OC_EX_DP,OC_EX_INT,OC_EX_SFU,OC_EX_MEM,EX_WB,ID_OC_TENSOR_CORE,OC_EX_TENSOR_CORE
-gpgpu_tensor_core_avail                    0 # Tensor Core Available (default=0)
-gpgpu_num_sp_units                     2 # Number of SP units (default=1)
-gpgpu_num_dp_units                     0 # Number of DP units (default=0)
-gpgpu_num_int_units                    0 # Number of INT units (default=0)
-gpgpu_num_sfu_units                    1 # Number of SF units (default=1)
-gpgpu_num_tensor_core_units                    0 # Number of tensor_core units (default=1)
-gpgpu_num_mem_units                    1 # Number if ldst units (default=1) WARNING: not hooked up to anything
-gpgpu_scheduler                      lrr # Scheduler configuration: < lrr | gto | two_level_active > If two_level_active:<num_active_warps>:<inner_prioritization>:<outer_prioritization>For complete list of prioritization values see shader.h enum scheduler_prioritization_typeDefault: gto
-gpgpu_concurrent_kernel_sm                    0 # Support concurrent kernels on a SM (default = disabled)
-gpgpu_perfect_inst_const_cache                    0 # perfect inst and const cache mode, so all inst and const hits in the cache(default = disabled)
-gpgpu_inst_fetch_throughput                    1 # the number of fetched intruction per warp each cycle
-gpgpu_reg_file_port_throughput                    1 # the number ports of the register file
-specialized_unit_1         0,4,4,4,4,BRA # specialized unit config {<enabled>,<num_units>:<latency>:<initiation>,<ID_OC_SPEC>:<OC_EX_SPEC>,<NAME>}
-specialized_unit_2         0,4,4,4,4,BRA # specialized unit config {<enabled>,<num_units>:<latency>:<initiation>,<ID_OC_SPEC>:<OC_EX_SPEC>,<NAME>}
-specialized_unit_3         0,4,4,4,4,BRA # specialized unit config {<enabled>,<num_units>:<latency>:<initiation>,<ID_OC_SPEC>:<OC_EX_SPEC>,<NAME>}
-specialized_unit_4         0,4,4,4,4,BRA # specialized unit config {<enabled>,<num_units>:<latency>:<initiation>,<ID_OC_SPEC>:<OC_EX_SPEC>,<NAME>}
-specialized_unit_5         0,4,4,4,4,BRA # specialized unit config {<enabled>,<num_units>:<latency>:<initiation>,<ID_OC_SPEC>:<OC_EX_SPEC>,<NAME>}
-specialized_unit_6         0,4,4,4,4,BRA # specialized unit config {<enabled>,<num_units>:<latency>:<initiation>,<ID_OC_SPEC>:<OC_EX_SPEC>,<NAME>}
-specialized_unit_7         0,4,4,4,4,BRA # specialized unit config {<enabled>,<num_units>:<latency>:<initiation>,<ID_OC_SPEC>:<OC_EX_SPEC>,<NAME>}
-specialized_unit_8         0,4,4,4,4,BRA # specialized unit config {<enabled>,<num_units>:<latency>:<initiation>,<ID_OC_SPEC>:<OC_EX_SPEC>,<NAME>}
-gpgpu_perf_sim_memcpy                    1 # Fill the L2 cache on memcpy
-gpgpu_simple_dram_model                    0 # simple_dram_model with fixed latency and BW
-gpgpu_dram_scheduler                    1 # 0 = fifo, 1 = FR-FCFS (defaul)
-gpgpu_dram_partition_queues          64:64:64:64 # i2$:$2d:d2$:$2i
-l2_ideal                               0 # Use a ideal L2 cache that always hit
-gpgpu_cache:dl2     S:64:128:8,L:B:m:L:L,A:256:4,4:0,32 # unified banked L2 data cache config  {<nsets>:<bsize>:<assoc>,<rep>:<wr>:<alloc>:<wr_alloc>,<mshr>:<N>:<merge>,<mq>}
-gpgpu_cache:dl2_texture_only                    0 # L2 cache used for texture only
-gpgpu_n_mem                            6 # number of memory modules (e.g. memory controllers) in gpu
-gpgpu_n_sub_partition_per_mchannel                    2 # number of memory subpartition in each memory module
-gpgpu_n_mem_per_ctrlr                    2 # number of memory chips per memory controller
-gpgpu_memlatency_stat                   14 # track and display latency statistics 0x2 enables MC, 0x4 enables queue logs
-gpgpu_frfcfs_dram_sched_queue_size                   64 # 0 = unlimited (default); # entries per chip
-gpgpu_dram_return_queue_size                  116 # 0 = unlimited (default); # entries per chip
-gpgpu_dram_buswidth                    4 # default = 4 bytes (8 bytes per cycle at DDR)
-gpgpu_dram_burst_length                    8 # Burst length of each DRAM request (default = 4 data bus cycle)
-dram_data_command_freq_ratio                    4 # Frequency ratio between DRAM data bus and command bus (default = 2 times, i.e. DDR)
-gpgpu_dram_timing_opt nbk=16:CCD=2:RRD=6:RCD=12:RAS=28:RP=12:RC=40: CL=12:WL=4:CDLR=5:WR=12:nbkgrp=4:CCDL=3:RTPL=2 # DRAM timing parameters = {nbk:tCCD:tRRD:tRCD:tRAS:tRP:tRC:CL:WL:tCDLR:tWR:nbkgrp:tCCDL:tRTPL}
-gpgpu_l2_rop_latency                  120 # ROP queue latency (default 85)
-dram_latency                         100 # DRAM latency (default 30)
-dram_dual_bus_interface                    0 # dual_bus_interface (default = 0) 
-dram_bnk_indexing_policy                    0 # dram_bnk_indexing_policy (0 = normal indexing, 1 = Xoring with the higher bits) (Default = 0)
-dram_bnkgrp_indexing_policy                    1 # dram_bnkgrp_indexing_policy (0 = take higher bits, 1 = take lower bits) (Default = 0)
-dram_seperate_write_queue_enable                    0 # Seperate_Write_Queue_Enable
-dram_write_queue_size             32:28:16 # Write_Queue_Size
-dram_elimnate_rw_turnaround                    0 # elimnate_rw_turnaround i.e set tWTR and tRTW = 0
-icnt_flit_size                        40 # icnt_flit_size
-gpgpu_mem_addr_mapping dramid@8;00000000.00000000.00000000.00000000.0000RRRR.RRRRRRRR.BBBCCCCB.CCSSSSSS # mapping memory address to dram model {dramid@<start bit>;<memory address map>}
-gpgpu_mem_addr_test                    0 # run sweep test to check address mapping for aliased address
-gpgpu_mem_address_mask                    1 # 0 = old addressing mask, 1 = new addressing mask, 2 = new add. mask + flipped bank sel and chip sel bits
-gpgpu_memory_partition_indexing                    0 # 0 = no indexing, 1 = bitwise xoring, 2 = IPoly, 3 = custom indexing
-gpuwattch_xml_file  gpuwattch_gtx480.xml # GPUWattch XML file
-power_simulation_enabled                    1 # Turn on power simulator (1=On, 0=Off)
-power_per_cycle_dump                    0 # Dump detailed power output each cycle
-power_trace_enabled                    0 # produce a file for the power trace (1=On, 0=Off)
-power_trace_zlevel                     6 # Compression level of the power trace output log (0=no comp, 9=highest)
-steady_power_levels_enabled                    0 # produce a file for the steady power levels (1=On, 0=Off)
-steady_state_definition                  8:4 # allowed deviation:number of samples
-gpgpu_max_cycle                        0 # terminates gpu simulation early (0 = no limit)
-gpgpu_max_insn                         0 # terminates gpu simulation early (0 = no limit)
-gpgpu_max_cta                          0 # terminates gpu simulation early (0 = no limit)
-gpgpu_max_completed_cta                    0 # terminates gpu simulation early (0 = no limit)
-gpgpu_runtime_stat                   500 # display runtime statistics such as dram utilization {<freq>:<flag>}
-liveness_message_freq                    1 # Minimum number of seconds between simulation liveness messages (0 = always print)
-gpgpu_compute_capability_major                    2 # Major compute capability version number
-gpgpu_compute_capability_minor                    0 # Minor compute capability version number
-gpgpu_flush_l1_cache                    1 # Flush L1 cache at the end of each kernel call
-gpgpu_flush_l2_cache                    0 # Flush L2 cache at the end of each kernel call
-gpgpu_deadlock_detect                    1 # Stop the simulation at deadlock (1=on (default), 0=off)
-gpgpu_ptx_instruction_classification                    0 # if enabled will classify ptx instruction types per kernel (Max 255 kernels now)
-gpgpu_ptx_sim_mode                     0 # Select between Performance (default) or Functional simulation (1)
-gpgpu_clock_domains 700.0:700.0:700.0:924.0 # Clock Domain Frequencies in MhZ {<Core Clock>:<ICNT Clock>:<L2 Clock>:<DRAM Clock>}
-gpgpu_max_concurrent_kernel                    8 # maximum kernels that can run concurrently on GPU
-gpgpu_cflog_interval                    0 # Interval between each snapshot in control flow logger
-visualizer_enabled                     0 # Turn on visualizer output (1=On, 0=Off)
-visualizer_outputfile                 NULL # Specifies the output log file for visualizer
-visualizer_zlevel                      6 # Compression level of the visualizer output log (0=no comp, 9=highest)
-gpgpu_stack_size_limit                 1024 # GPU thread stack size
-gpgpu_heap_size_limit              8388608 # GPU malloc heap size 
-gpgpu_runtime_sync_depth_limit                    2 # GPU device runtime synchronize depth
-gpgpu_runtime_pending_launch_count_limit                 2048 # GPU device runtime pending launch count
-trace_enabled                          0 # Turn on traces
-trace_components                    none # comma seperated list of traces to enable. Complete list found in trace_streams.tup. Default none
-trace_sampling_core                    0 # The core which is printed using CORE_DPRINTF. Default 0
-trace_sampling_memory_partition                   -1 # The memory partition which is printed using MEMPART_DPRINTF. Default -1 (i.e. all)
-enable_ptx_file_line_stats                    1 # Turn on PTX source line statistic profiling. (1 = On)
-ptx_line_stats_filename gpgpu_inst_stats.txt # Output file for PTX source line statistics.
-gpgpu_kernel_launch_latency                    0 # Kernel launch latency in cycles. Default: 0
-gpgpu_cdp_enabled                      0 # Turn on CDP
-gpgpu_TB_launch_latency                    0 # thread block launch latency in cycles. Default: 0
DRAM Timing Options:
nbk                                    16 # number of banks
CCD                                     2 # column to column delay
RRD                                     6 # minimal delay between activation of rows in different banks
RCD                                    12 # row to column delay
RAS                                    28 # time needed to activate row
RP                                     12 # time needed to precharge (deactivate) row
RC                                     40 # row cycle time
CDLR                                    5 # switching from write to read (changes tWTR)
WR                                     12 # last data-in to row precharge
CL                                     12 # CAS latency
WL                                      4 # Write latency
nbkgrp                                  4 # number of bank groups
CCDL                                    3 # column to column delay between accesses to different bank groups
RTPL                                    2 # read to precharge delay between accesses to different bank groups
Total number of memory sub partition = 12
addr_dec_mask[CHIP]  = 0000000000000000 	high:64 low:0
addr_dec_mask[BK]    = 000000000000e100 	high:16 low:8
addr_dec_mask[ROW]   = 000000000fff0000 	high:28 low:16
addr_dec_mask[COL]   = 0000000000001eff 	high:13 low:0
addr_dec_mask[BURST] = 000000000000003f 	high:6 low:0
sub_partition_id_mask = 0000000000000100
GPGPU-Sim uArch: clock freqs: 700000000.000000:700000000.000000:700000000.000000:924000000.000000
GPGPU-Sim uArch: clock periods: 0.00000000142857142857:0.00000000142857142857:0.00000000142857142857:0.00000000108225108225
*** Initializing Memory Statistics ***
GPGPU-Sim uArch: interconnect node map (shaderID+MemID to icntID)
GPGPU-Sim uArch: Memory nodes ID start from index: 15
GPGPU-Sim uArch:    0   1   2   3   4
GPGPU-Sim uArch:    5   6   7   8   9
GPGPU-Sim uArch:   10  11  12  13  14
GPGPU-Sim uArch:   15  16  17  18  19
GPGPU-Sim uArch:   20  21  22  23  24
GPGPU-Sim uArch:   25  26
GPGPU-Sim uArch: interconnect node reverse map (icntID to shaderID+MemID)
GPGPU-Sim uArch: Memory nodes start from ID: 15
GPGPU-Sim uArch:    0   1   2   3   4
GPGPU-Sim uArch:    5   6   7   8   9
GPGPU-Sim uArch:   10  11  12  13  14
GPGPU-Sim uArch:   15  16  17  18  19
GPGPU-Sim uArch:   20  21  22  23  24
GPGPU-Sim uArch:   25  26
10fe61c5ee3539e294673d26adeaf96f  /home/vishnu/COA_Lab/Lab4_28-08-2023/gpu-rodinia/cuda/bfs/a.out
Extracting PTX file and ptxas options    1: a.1.sm_52.ptx -arch=sm_52
GPGPU-Sim uArch: performance model initialization complete.
self exe links to: /home/vishnu/COA_Lab/Lab4_28-08-2023/gpu-rodinia/cuda/bfs/a.out
self exe links to: /home/vishnu/COA_Lab/Lab4_28-08-2023/gpu-rodinia/cuda/bfs/a.out
11.0
GPGPU-Sim PTX: __cudaRegisterFatBinary, fat_cubin_handle = 1, filename=default
self exe links to: /home/vishnu/COA_Lab/Lab4_28-08-2023/gpu-rodinia/cuda/bfs/a.out
Running md5sum using "md5sum /home/vishnu/COA_Lab/Lab4_28-08-2023/gpu-rodinia/cuda/bfs/a.out "
self exe links to: /home/vishnu/COA_Lab/Lab4_28-08-2023/gpu-rodinia/cuda/bfs/a.out
Extracting specific PTX file named a.1.sm_52.ptx 
GPGPU-Sim PTX: __cudaRegisterFunction _Z7Kernel2PbS_S_S_i : hostFun 0x0x55d17569cf9e, fat_cubin_handle = 1
GPGPU-Sim PTX: Parsing a.1.sm_52.ptx
GPGPU-Sim PTX: instruction assembly for function '_Z6KernelP4NodePiPbS2_S2_S1_i'...   done.
GPGPU-Sim PTX: instruction assembly for function '_Z7Kernel2PbS_S_S_i'...   done.
GPGPU-Sim PTX: finished parsing EMBEDDED .ptx file a.1.sm_52.ptx
GPGPU-Sim PTX: loading globals with explicit initializers... 
GPGPU-Sim PTX: finished loading globals (0 bytes total).
GPGPU-Sim PTX: loading constants with explicit initializers...  done.
GPGPU-Sim PTX: Loading PTXInfo from a.1.sm_52.ptx
GPGPU-Sim PTX: Kernel '_Z7Kernel2PbS_S_S_i' : regs=12, lmem=0, smem=0, cmem=356
GPGPU-Sim PTX: Kernel '_Z6KernelP4NodePiPbS2_S2_S1_i' : regs=18, lmem=0, smem=0, cmem=372
GPGPU-Sim PTX: __cudaRegisterFunction _Z6KernelP4NodePiPbS2_S2_S1_i : hostFun 0x0x55d17569cdc3, fat_cubin_handle = 1
Reading File
Read File
Copied Everything to GPU memory
Start traversing the tree
GPGPU-Sim PTX: Setting up arguments for 8 bytes starting at 0x7ffdb101fbf8..
GPGPU-Sim PTX: Setting up arguments for 8 bytes starting at 0x7ffdb101fbf0..
GPGPU-Sim PTX: Setting up arguments for 8 bytes starting at 0x7ffdb101fbe8..
GPGPU-Sim PTX: Setting up arguments for 8 bytes starting at 0x7ffdb101fbe0..
GPGPU-Sim PTX: Setting up arguments for 8 bytes starting at 0x7ffdb101fbd8..
GPGPU-Sim PTX: Setting up arguments for 8 bytes starting at 0x7ffdb101fbd0..
GPGPU-Sim PTX: Setting up arguments for 4 bytes starting at 0x7ffdb101fc80..

GPGPU-Sim PTX: cudaLaunch for 0x0x55d17569cdc3 (mode=performance simulation) on stream 0
GPGPU-Sim PTX: finding reconvergence points for '_Z6KernelP4NodePiPbS2_S2_S1_i'...
GPGPU-Sim PTX: Finding dominators for '_Z6KernelP4NodePiPbS2_S2_S1_i'...
GPGPU-Sim PTX: Finding immediate dominators for '_Z6KernelP4NodePiPbS2_S2_S1_i'...
GPGPU-Sim PTX: Finding postdominators for '_Z6KernelP4NodePiPbS2_S2_S1_i'...
GPGPU-Sim PTX: Finding immediate postdominators for '_Z6KernelP4NodePiPbS2_S2_S1_i'...
GPGPU-Sim PTX: pre-decoding instructions for '_Z6KernelP4NodePiPbS2_S2_S1_i'...
GPGPU-Sim PTX: reconvergence points for _Z6KernelP4NodePiPbS2_S2_S1_i...
GPGPU-Sim PTX:  1 (potential) branch divergence @  PC=0x060 (a.1.sm_52.ptx:43) @%p1 bra BB0_7;
GPGPU-Sim PTX:    immediate post dominator      @  PC=0x1d8 (a.1.sm_52.ptx:100) ret;
GPGPU-Sim PTX:  2 (potential) branch divergence @  PC=0x090 (a.1.sm_52.ptx:50) @%p2 bra BB0_7;
GPGPU-Sim PTX:    immediate post dominator      @  PC=0x1d8 (a.1.sm_52.ptx:100) ret;
GPGPU-Sim PTX:  3 (potential) branch divergence @  PC=0x0d8 (a.1.sm_52.ptx:60) @%p3 bra BB0_7;
GPGPU-Sim PTX:    immediate post dominator      @  PC=0x1d8 (a.1.sm_52.ptx:100) ret;
GPGPU-Sim PTX:  4 (potential) branch divergence @  PC=0x158 (a.1.sm_52.ptx:79) @%p4 bra BB0_6;
GPGPU-Sim PTX:    immediate post dominator      @  PC=0x1b0 (a.1.sm_52.ptx:93) add.s64 %rd31, %rd31, 4;
GPGPU-Sim PTX:  5 (potential) branch divergence @  PC=0x1d0 (a.1.sm_52.ptx:97) @%p5 bra BB0_4;
GPGPU-Sim PTX:    immediate post dominator      @  PC=0x1d8 (a.1.sm_52.ptx:100) ret;
GPGPU-Sim PTX: ... end of reconvergence points for _Z6KernelP4NodePiPbS2_S2_S1_i
GPGPU-Sim PTX: ... done pre-decoding instructions for '_Z6KernelP4NodePiPbS2_S2_S1_i'.
GPGPU-Sim PTX: pushing kernel '_Z6KernelP4NodePiPbS2_S2_S1_i' to stream 0, gridDim= (128,1,1) blockDim = (512,1,1) 
GPGPU-Sim uArch: Shader 0 bind to kernel 1 '_Z6KernelP4NodePiPbS2_S2_S1_i'
GPGPU-Sim uArch: CTA/core = 3, limited by: threads regs
GPGPU-Sim uArch: Shader 1 bind to kernel 1 '_Z6KernelP4NodePiPbS2_S2_S1_i'
GPGPU-Sim uArch: Shader 2 bind to kernel 1 '_Z6KernelP4NodePiPbS2_S2_S1_i'
GPGPU-Sim uArch: Shader 3 bind to kernel 1 '_Z6KernelP4NodePiPbS2_S2_S1_i'
GPGPU-Sim uArch: Shader 4 bind to kernel 1 '_Z6KernelP4NodePiPbS2_S2_S1_i'
GPGPU-Sim uArch: Shader 5 bind to kernel 1 '_Z6KernelP4NodePiPbS2_S2_S1_i'
GPGPU-Sim uArch: Shader 6 bind to kernel 1 '_Z6KernelP4NodePiPbS2_S2_S1_i'
GPGPU-Sim uArch: Shader 7 bind to kernel 1 '_Z6KernelP4NodePiPbS2_S2_S1_i'
GPGPU-Sim uArch: Shader 8 bind to kernel 1 '_Z6KernelP4NodePiPbS2_S2_S1_i'
GPGPU-Sim uArch: Shader 9 bind to kernel 1 '_Z6KernelP4NodePiPbS2_S2_S1_i'
GPGPU-Sim uArch: Shader 10 bind to kernel 1 '_Z6KernelP4NodePiPbS2_S2_S1_i'
GPGPU-Sim uArch: Shader 11 bind to kernel 1 '_Z6KernelP4NodePiPbS2_S2_S1_i'
GPGPU-Sim uArch: Shader 12 bind to kernel 1 '_Z6KernelP4NodePiPbS2_S2_S1_i'
GPGPU-Sim uArch: Shader 13 bind to kernel 1 '_Z6KernelP4NodePiPbS2_S2_S1_i'
GPGPU-Sim uArch: Shader 14 bind to kernel 1 '_Z6KernelP4NodePiPbS2_S2_S1_i'
Destroy streams for kernel 1: size 0
kernel_name = _Z6KernelP4NodePiPbS2_S2_S1_i 
kernel_launch_uid = 1 
gpu_sim_cycle = 5674
gpu_sim_insn = 1245360
gpu_ipc =     219.4854
gpu_tot_sim_cycle = 5674
gpu_tot_sim_insn = 1245360
gpu_tot_ipc =     219.4854
gpu_tot_issued_cta = 128
gpu_occupancy = 88.3977% 
gpu_tot_occupancy = 88.3977% 
max_total_param_size = 0
gpu_stall_dramfull = 0
gpu_stall_icnt2sh    = 0
partiton_level_parallism =       0.1059
partiton_level_parallism_total  =       0.1059
partiton_level_parallism_util =       1.4694
partiton_level_parallism_util_total  =       1.4694
L2_BW  =       9.1708 GB/Sec
L2_BW_total  =       9.1708 GB/Sec
gpu_total_sim_rate=622680

========= Core cache stats =========
L1I_cache:
	L1I_total_cache_accesses = 22624
	L1I_total_cache_misses = 1441
	L1I_total_cache_miss_rate = 0.0637
	L1I_total_cache_pending_hits = 0
	L1I_total_cache_reservation_fails = 7568
L1D_cache:
	L1D_cache_core[0]: Access = 171, Miss = 55, Miss_rate = 0.322, Pending_hits = 84, Reservation_fails = 0
	L1D_cache_core[1]: Access = 144, Miss = 36, Miss_rate = 0.250, Pending_hits = 108, Reservation_fails = 0
	L1D_cache_core[2]: Access = 128, Miss = 32, Miss_rate = 0.250, Pending_hits = 96, Reservation_fails = 0
	L1D_cache_core[3]: Access = 144, Miss = 36, Miss_rate = 0.250, Pending_hits = 108, Reservation_fails = 0
	L1D_cache_core[4]: Access = 144, Miss = 36, Miss_rate = 0.250, Pending_hits = 108, Reservation_fails = 0
	L1D_cache_core[5]: Access = 144, Miss = 36, Miss_rate = 0.250, Pending_hits = 106, Reservation_fails = 0
	L1D_cache_core[6]: Access = 144, Miss = 36, Miss_rate = 0.250, Pending_hits = 108, Reservation_fails = 0
	L1D_cache_core[7]: Access = 128, Miss = 32, Miss_rate = 0.250, Pending_hits = 96, Reservation_fails = 0
	L1D_cache_core[8]: Access = 128, Miss = 32, Miss_rate = 0.250, Pending_hits = 96, Reservation_fails = 0
	L1D_cache_core[9]: Access = 144, Miss = 36, Miss_rate = 0.250, Pending_hits = 108, Reservation_fails = 0
	L1D_cache_core[10]: Access = 128, Miss = 32, Miss_rate = 0.250, Pending_hits = 96, Reservation_fails = 0
	L1D_cache_core[11]: Access = 144, Miss = 36, Miss_rate = 0.250, Pending_hits = 108, Reservation_fails = 0
	L1D_cache_core[12]: Access = 144, Miss = 36, Miss_rate = 0.250, Pending_hits = 108, Reservation_fails = 0
	L1D_cache_core[13]: Access = 144, Miss = 36, Miss_rate = 0.250, Pending_hits = 108, Reservation_fails = 0
	L1D_cache_core[14]: Access = 128, Miss = 32, Miss_rate = 0.250, Pending_hits = 96, Reservation_fails = 0
	L1D_total_cache_accesses = 2107
	L1D_total_cache_misses = 539
	L1D_total_cache_miss_rate = 0.2558
	L1D_total_cache_pending_hits = 1534
	L1D_total_cache_reservation_fails = 0
	L1D_cache_data_port_util = 0.001
	L1D_cache_fill_port_util = 0.011
L1C_cache:
	L1C_total_cache_accesses = 14336
	L1C_total_cache_misses = 480
	L1C_total_cache_miss_rate = 0.0335
	L1C_total_cache_pending_hits = 0
	L1C_total_cache_reservation_fails = 3389
L1T_cache:
	L1T_total_cache_accesses = 0
	L1T_total_cache_misses = 0
	L1T_total_cache_pending_hits = 0
	L1T_total_cache_reservation_fails = 0

Total_core_cache_stats:
	Total_core_cache_stats_breakdown[GLOBAL_ACC_R][HIT] = 33
	Total_core_cache_stats_breakdown[GLOBAL_ACC_R][HIT_RESERVED] = 1534
	Total_core_cache_stats_breakdown[GLOBAL_ACC_R][MISS] = 523
	Total_core_cache_stats_breakdown[GLOBAL_ACC_R][RESERVATION_FAIL] = 0
	Total_core_cache_stats_breakdown[GLOBAL_ACC_R][SECTOR_MISS] = 0
	Total_core_cache_stats_breakdown[LOCAL_ACC_R][HIT] = 0
	Total_core_cache_stats_breakdown[LOCAL_ACC_R][HIT_RESERVED] = 0
	Total_core_cache_stats_breakdown[LOCAL_ACC_R][MISS] = 0
	Total_core_cache_stats_breakdown[LOCAL_ACC_R][RESERVATION_FAIL] = 0
	Total_core_cache_stats_breakdown[LOCAL_ACC_R][SECTOR_MISS] = 0
	Total_core_cache_stats_breakdown[CONST_ACC_R][HIT] = 13856
	Total_core_cache_stats_breakdown[CONST_ACC_R][HIT_RESERVED] = 0
	Total_core_cache_stats_breakdown[CONST_ACC_R][MISS] = 480
	Total_core_cache_stats_breakdown[CONST_ACC_R][RESERVATION_FAIL] = 3389
	Total_core_cache_stats_breakdown[CONST_ACC_R][SECTOR_MISS] = 0
	Total_core_cache_stats_breakdown[TEXTURE_ACC_R][HIT] = 0
	Total_core_cache_stats_breakdown[TEXTURE_ACC_R][HIT_RESERVED] = 0
	Total_core_cache_stats_breakdown[TEXTURE_ACC_R][MISS] = 0
	Total_core_cache_stats_breakdown[TEXTURE_ACC_R][RESERVATION_FAIL] = 0
	Total_core_cache_stats_breakdown[TEXTURE_ACC_R][SECTOR_MISS] = 0
	Total_core_cache_stats_breakdown[GLOBAL_ACC_W][HIT] = 1
	Total_core_cache_stats_breakdown[GLOBAL_ACC_W][HIT_RESERVED] = 0
	Total_core_cache_stats_breakdown[GLOBAL_ACC_W][MISS] = 16
	Total_core_cache_stats_breakdown[GLOBAL_ACC_W][RESERVATION_FAIL] = 0
	Total_core_cache_stats_breakdown[GLOBAL_ACC_W][SECTOR_MISS] = 0
	Total_core_cache_stats_breakdown[LOCAL_ACC_W][HIT] = 0
	Total_core_cache_stats_breakdown[LOCAL_ACC_W][HIT_RESERVED] = 0
	Total_core_cache_stats_breakdown[LOCAL_ACC_W][MISS] = 0
	Total_core_cache_stats_breakdown[LOCAL_ACC_W][RESERVATION_FAIL] = 0
	Total_core_cache_stats_breakdown[LOCAL_ACC_W][SECTOR_MISS] = 0
	Total_core_cache_stats_breakdown[L1_WRBK_ACC][HIT] = 0
	Total_core_cache_stats_breakdown[L1_WRBK_ACC][HIT_RESERVED] = 0
	Total_core_cache_stats_breakdown[L1_WRBK_ACC][MISS] = 0
	Total_core_cache_stats_breakdown[L1_WRBK_ACC][RESERVATION_FAIL] = 0
	Total_core_cache_stats_breakdown[L1_WRBK_ACC][SECTOR_MISS] = 0
	Total_core_cache_stats_breakdown[L2_WRBK_ACC][HIT] = 0
	Total_core_cache_stats_breakdown[L2_WRBK_ACC][HIT_RESERVED] = 0
	Total_core_cache_stats_breakdown[L2_WRBK_ACC][MISS] = 0
	Total_core_cache_stats_breakdown[L2_WRBK_ACC][RESERVATION_FAIL] = 0
	Total_core_cache_stats_breakdown[L2_WRBK_ACC][SECTOR_MISS] = 0
	Total_core_cache_stats_breakdown[INST_ACC_R][HIT] = 21183
	Total_core_cache_stats_breakdown[INST_ACC_R][HIT_RESERVED] = 0
	Total_core_cache_stats_breakdown[INST_ACC_R][MISS] = 1441
	Total_core_cache_stats_breakdown[INST_ACC_R][RESERVATION_FAIL] = 7568
	Total_core_cache_stats_breakdown[INST_ACC_R][SECTOR_MISS] = 0
	Total_core_cache_stats_breakdown[L1_WR_ALLOC_R][HIT] = 0
	Total_core_cache_stats_breakdown[L1_WR_ALLOC_R][HIT_RESERVED] = 0
	Total_core_cache_stats_breakdown[L1_WR_ALLOC_R][MISS] = 0
	Total_core_cache_stats_breakdown[L1_WR_ALLOC_R][RESERVATION_FAIL] = 0
	Total_core_cache_stats_breakdown[L1_WR_ALLOC_R][SECTOR_MISS] = 0
	Total_core_cache_stats_breakdown[L2_WR_ALLOC_R][HIT] = 0
	Total_core_cache_stats_breakdown[L2_WR_ALLOC_R][HIT_RESERVED] = 0
	Total_core_cache_stats_breakdown[L2_WR_ALLOC_R][MISS] = 0
	Total_core_cache_stats_breakdown[L2_WR_ALLOC_R][RESERVATION_FAIL] = 0
	Total_core_cache_stats_breakdown[L2_WR_ALLOC_R][SECTOR_MISS] = 0
	Total_core_cache_stats_breakdown[GLOBAL_ACC_R][TOTAL_ACCESS] = 2090
	Total_core_cache_stats_breakdown[CONST_ACC_R][TOTAL_ACCESS] = 14336
	Total_core_cache_stats_breakdown[GLOBAL_ACC_W][TOTAL_ACCESS] = 17
	Total_core_cache_stats_breakdown[INST_ACC_R][TOTAL_ACCESS] = 22624

Total_core_cache_fail_stats:
	Total_core_cache_fail_stats_breakdown[CONST_ACC_R][MSHR_MERGE_ENRTY_FAIL] = 3389
	Total_core_cache_fail_stats_breakdown[INST_ACC_R][MSHR_MERGE_ENRTY_FAIL] = 7568
ctas_completed 128, Shader 0 warp_id issue ditsribution:
warp_id:
0, 1, 2, 3, 4, 5, 6, 7, 8, 9, 10, 11, 12, 13, 14, 15, 16, 17, 18, 19, 20, 21, 22, 23, 24, 25, 26, 27, 28, 29, 30, 31, 32, 33, 34, 35, 36, 37, 38, 39, 40, 41, 42, 43, 44, 45, 46, 47, 
distro:
207, 20, 20, 20, 20, 20, 20, 20, 20, 20, 20, 20, 20, 20, 20, 20, 60, 60, 60, 60, 60, 60, 60, 60, 60, 60, 60, 60, 60, 60, 60, 60, 60, 60, 60, 60, 60, 60, 60, 60, 60, 60, 60, 60, 60, 60, 60, 60, 
gpgpu_n_tot_thrd_icount = 1316704
gpgpu_n_tot_w_icount = 41147
gpgpu_n_stall_shd_mem = 3389
gpgpu_n_mem_read_local = 0
gpgpu_n_mem_write_local = 0
gpgpu_n_mem_read_global = 523
gpgpu_n_mem_write_global = 17
gpgpu_n_mem_texture = 0
gpgpu_n_mem_const = 15
gpgpu_n_load_insn  = 65578
gpgpu_n_store_insn = 17
gpgpu_n_shmem_insn = 0
gpgpu_n_sstarr_insn = 0
gpgpu_n_tex_insn = 0
gpgpu_n_const_mem_insn = 0
gpgpu_n_param_mem_insn = 458752
gpgpu_n_shmem_bkconflict = 0
gpgpu_n_cache_bkconflict = 0
gpgpu_n_intrawarp_mshr_merge = 0
gpgpu_n_cmem_portconflict = 3389
gpgpu_stall_shd_mem[c_mem][resource_stall] = 3389
gpgpu_stall_shd_mem[s_mem][bk_conf] = 0
gpgpu_stall_shd_mem[gl_mem][resource_stall] = 0
gpgpu_stall_shd_mem[gl_mem][coal_stall] = 0
gpgpu_stall_shd_mem[gl_mem][data_port_stall] = 0
gpu_reg_bank_conflict_stalls = 0
Warp Occupancy Distribution:
Stall:18461	W0_Idle:20461	W0_Scoreboard:16485	W1:187	W2:0	W3:0	W4:0	W5:0	W6:0	W7:0	W8:0	W9:0	W10:0	W11:0	W12:0	W13:0	W14:0	W15:0	W16:0	W17:0	W18:0	W19:0	W20:0	W21:0	W22:0	W23:0	W24:0	W25:0	W26:0	W27:0	W28:0	W29:0	W30:0	W31:0	W32:40960
single_issue_nums: WS0:20667	WS1:20480	
dual_issue_nums: WS0:0	WS1:0	
traffic_breakdown_coretomem[CONST_ACC_R] = 120 {8:15,}
traffic_breakdown_coretomem[GLOBAL_ACC_R] = 4184 {8:523,}
traffic_breakdown_coretomem[GLOBAL_ACC_W] = 680 {40:17,}
traffic_breakdown_coretomem[INST_ACC_R] = 368 {8:46,}
traffic_breakdown_memtocore[CONST_ACC_R] = 1200 {40:30,}
traffic_breakdown_memtocore[GLOBAL_ACC_R] = 83680 {40:2092,}
traffic_breakdown_memtocore[GLOBAL_ACC_W] = 136 {8:17,}
traffic_breakdown_memtocore[INST_ACC_R] = 7360 {40:184,}
maxmflatency = 267 
max_icnt2mem_latency = 45 
maxmrqlatency = 21 
max_icnt2sh_latency = 44 
averagemflatency = 141 
avg_icnt2mem_latency = 11 
avg_mrq_latency = 9 
avg_icnt2sh_latency = 12 
mrq_lat_table:9 	1 	0 	9 	7 	0 	0 	0 	0 	0 	0 	0 	0 	0 	0 	0 	0 	0 	0 	0 	0 	0 	0 	0 	0 	0 	0 	0 	0 	0 	0 	0 	
dq_lat_table:0 	0 	0 	0 	0 	0 	0 	0 	0 	0 	0 	0 	0 	0 	0 	0 	0 	0 	0 	0 	0 	0 	0 	0 	0 	0 	0 	0 	0 	0 	0 	0 	
mf_lat_table:0 	0 	0 	0 	0 	0 	0 	2128 	11 	0 	0 	0 	0 	0 	0 	0 	0 	0 	0 	0 	0 	0 	0 	0 	0 	0 	0 	0 	0 	0 	0 	0 	
icnt2mem_lat_table:0 	0 	30 	25 	6 	540 	0 	0 	0 	0 	0 	0 	0 	0 	0 	0 	0 	0 	0 	0 	0 	0 	0 	0 	
icnt2sh_lat_table:0 	0 	1065 	523 	400 	151 	0 	0 	0 	0 	0 	0 	0 	0 	0 	0 	0 	0 	0 	0 	0 	0 	0 	0 	
mf_lat_pw_table:0 	0 	0 	0 	0 	0 	0 	10 	0 	0 	0 	0 	0 	0 	0 	0 	0 	0 	0 	0 	0 	0 	0 	0 	0 	0 	0 	0 	0 	0 	0 	0 	
maximum concurrent accesses to same row:
dram[0]:         4         0         0         0         0         0         0         0         0         0         0         0         0         0         0         0 
dram[1]:         0         0         0         0         0         0         0         0         0         0         0         0         0         0         0         0 
dram[2]:         0         0         0         0         0         0         0         0         0         0         0         0         0         0         0         0 
dram[3]:         0         0         0         0         0         0         0         0         0         0         0         0         0         0         0         0 
dram[4]:         0         0         0         0         0         0         0         0         0         0         0         0         0         0         0         0 
dram[5]:         0         0         0         0         0         0         0         0         0         0         0         0         0         0         0         0 
maximum service time to same row:
dram[0]:       601         0         0         0         0         0         0         0         0         0         0         0         0         0         0         0 
dram[1]:      1510         0         0         0         0         0         0         0         0         0         0         0         0         0         0         0 
dram[2]:         0         0         0         0         0      2349         0         0         0         0         0         0         0         0         0         0 
dram[3]:         0         0         0         0         0         0         0         0         0         0         0         0         0         0         0         0 
dram[4]:         0         0         0         0         0         0         0         0         0         0         0         0         0         0         0         0 
dram[5]:         0         0         0         0         0         0         0         0         0         0         0         0         0         0         0         0 
average row accesses per activate:
dram[0]:  3.500000      -nan      -nan      -nan      -nan      -nan      -nan      -nan      -nan      -nan      -nan      -nan      -nan      -nan      -nan      -nan 
dram[1]:  8.000000      -nan      -nan      -nan      -nan      -nan      -nan      -nan      -nan      -nan      -nan      -nan      -nan      -nan      -nan      -nan 
dram[2]:      -nan      -nan      -nan      -nan      -nan  4.000000      -nan      -nan      -nan      -nan      -nan      -nan      -nan      -nan      -nan      -nan 
dram[3]:      -nan      -nan      -nan      -nan      -nan      -nan      -nan      -nan      -nan      -nan      -nan      -nan      -nan      -nan      -nan      -nan 
dram[4]:      -nan      -nan      -nan      -nan      -nan      -nan      -nan      -nan      -nan      -nan      -nan      -nan      -nan      -nan      -nan      -nan 
dram[5]:      -nan      -nan      -nan      -nan      -nan      -nan      -nan      -nan      -nan      -nan      -nan      -nan      -nan      -nan      -nan      -nan 
average row locality = 26/6 = 4.333333
number of total memory accesses made:
dram[0]:         0         0         0         0         0         0         0         0         0         0         0         0         0         0         0         0 
dram[1]:         0         0         0         0         0         0         0         0         0         0         0         0         0         0         0         0 
dram[2]:         0         0         0         0         0         0         0         0         0         0         0         0         0         0         0         0 
dram[3]:         0         0         0         0         0         0         0         0         0         0         0         0         0         0         0         0 
dram[4]:         0         0         0         0         0         0         0         0         0         0         0         0         0         0         0         0 
dram[5]:         0         0         0         0         0         0         0         0         0         0         0         0         0         0         0         0 
total accesses: 0
min_bank_accesses = 0!
min_chip_accesses = 0!
number of total read accesses:
dram[0]:         0         0         0         0         0         0         0         0         0         0         0         0         0         0         0         0 
dram[1]:         0         0         0         0         0         0         0         0         0         0         0         0         0         0         0         0 
dram[2]:         0         0         0         0         0         0         0         0         0         0         0         0         0         0         0         0 
dram[3]:         0         0         0         0         0         0         0         0         0         0         0         0         0         0         0         0 
dram[4]:         0         0         0         0         0         0         0         0         0         0         0         0         0         0         0         0 
dram[5]:         0         0         0         0         0         0         0         0         0         0         0         0         0         0         0         0 
total dram reads = 0
min_bank_accesses = 0!
min_chip_accesses = 0!
number of total write accesses:
dram[0]:         0         0         0         0         0         0         0         0         0         0         0         0         0         0         0         0 
dram[1]:         0         0         0         0         0         0         0         0         0         0         0         0         0         0         0         0 
dram[2]:         0         0         0         0         0         0         0         0         0         0         0         0         0         0         0         0 
dram[3]:         0         0         0         0         0         0         0         0         0         0         0         0         0         0         0         0 
dram[4]:         0         0         0         0         0         0         0         0         0         0         0         0         0         0         0         0 
dram[5]:         0         0         0         0         0         0         0         0         0         0         0         0         0         0         0         0 
total dram writes = 0
min_bank_accesses = 0!
min_chip_accesses = 0!
average mf latency per bank:
dram[0]:     none      none      none      none      none      none      none      none      none      none      none      none      none      none      none      none  
dram[1]:     none      none      none      none      none      none      none      none      none      none      none      none      none      none      none      none  
dram[2]:     none      none      none      none      none      none      none      none      none      none      none      none      none      none      none      none  
dram[3]:     none      none      none      none      none      none      none      none      none      none      none      none      none      none      none      none  
dram[4]:     none      none      none      none      none      none      none      none      none      none      none      none      none      none      none      none  
dram[5]:     none      none      none      none      none      none      none      none      none      none      none      none      none      none      none      none  
maximum mf latency per bank:
dram[0]:        267         0         0       172       171       162       174       172         0         0         0         0       132         0         0       172
dram[1]:          0         0         0         0       176       163       175       166         0         0       132         0         0         0         0         0
dram[2]:          0       172         0         0       163       259       166       154         0       172         0       172         0       133         0         0
dram[3]:          0         0         0         0       171       162       164       160         0       172       132       132       132         0         0         0
dram[4]:          0         0         0         0       161       177       172       179         0         0         0         0         0         0       172         0
dram[5]:        172         0       172         0       164       187       171       173       172       172         0       172         0         0         0         0
Memory Partition 0: 
Cache L2_bank_000:
MSHR contents

Cache L2_bank_001:
MSHR contents

In Dram Latency Queue (total = 0): 
DRAM[0]: 16 bks, busW=4 BL=8 CL=12, tRRD=6 tCCD=2, tRCD=12 tRAS=28 tRP=12 tRC=40
n_cmd=7489 n_nop=7468 n_act=4 n_pre=3 n_ref_event=94358138646096 n_req=14 n_rd=14 n_rd_L2_A=0 n_write=0 n_wr_bk=0 bw_util=0.003739
n_activity=196 dram_eff=0.1429
bk0: 14a 7385i bk1: 0a 7486i bk2: 0a 7486i bk3: 0a 7487i bk4: 0a 7487i bk5: 0a 7489i bk6: 0a 7489i bk7: 0a 7489i bk8: 0a 7489i bk9: 0a 7489i bk10: 0a 7489i bk11: 0a 7489i bk12: 0a 7489i bk13: 0a 7491i bk14: 0a 7491i bk15: 0a 7492i 

------------------------------------------------------------------------

Row_Buffer_Locality = 0.714286
Row_Buffer_Locality_read = 0.714286
Row_Buffer_Locality_write = -nan
Bank_Level_Parallism = 1.000000
Bank_Level_Parallism_Col = 0.674869
Bank_Level_Parallism_Ready = 1.000000
write_to_read_ratio_blp_rw_average = 0.000000
GrpLevelPara = 0.000000 

BW Util details:
bwutil = 0.003739 
total_CMD = 7489 
util_bw = 28 
Wasted_Col = 58 
Wasted_Row = 36 
Idle = 7367 

BW Util Bottlenecks: 
RCDc_limit = 48 
RCDWRc_limit = 0 
WTRc_limit = 0 
RTWc_limit = 0 
CCDLc_limit = 10 
rwq = 0 
CCDLc_limit_alone = 10 
WTRc_limit_alone = 0 
RTWc_limit_alone = 0 

Commands details: 
total_CMD = 7489 
n_nop = 7468 
Read = 14 
Write = 0 
L2_Alloc = 0 
L2_WB = 0 
n_act = 4 
n_pre = 3 
n_ref = 94358138646096 
n_req = 14 
total_req = 14 

Dual Bus Interface Util: 
issued_total_row = 7 
issued_total_col = 14 
Row_Bus_Util =  0.000935 
CoL_Bus_Util = 0.001869 
Either_Row_CoL_Bus_Util = 0.002804 
Issued_on_Two_Bus_Simul_Util = 0.000000 
issued_two_Eff = 0.000000 
queue_avg = 0.028842 


dram_util_bins: 0 0 0 0 0 0 0 0 0 0
dram_eff_bins: 0 0 0 0 0 0 0 0 0 0
mrqq: max=3 avg=0.0288423
Memory Partition 1: 
Cache L2_bank_002:
MSHR contents

Cache L2_bank_003:
MSHR contents

In Dram Latency Queue (total = 0): 
DRAM[1]: 16 bks, busW=4 BL=8 CL=12, tRRD=6 tCCD=2, tRCD=12 tRAS=28 tRP=12 tRC=40
n_cmd=7489 n_nop=7480 n_act=1 n_pre=0 n_ref_event=0 n_req=8 n_rd=8 n_rd_L2_A=0 n_write=0 n_wr_bk=0 bw_util=0.002136
n_activity=61 dram_eff=0.2623
bk0: 8a 7466i bk1: 0a 7489i bk2: 0a 7489i bk3: 0a 7489i bk4: 0a 7489i bk5: 0a 7489i bk6: 0a 7489i bk7: 0a 7489i bk8: 0a 7489i bk9: 0a 7489i bk10: 0a 7489i bk11: 0a 7489i bk12: 0a 7489i bk13: 0a 7489i bk14: 0a 7489i bk15: 0a 7489i 

------------------------------------------------------------------------

Row_Buffer_Locality = 0.875000
Row_Buffer_Locality_read = 0.875000
Row_Buffer_Locality_write = -nan
Bank_Level_Parallism = 1.000000
Bank_Level_Parallism_Col = 1.004557
Bank_Level_Parallism_Ready = 1.000000
write_to_read_ratio_blp_rw_average = 0.000000
GrpLevelPara = 0.000000 

BW Util details:
bwutil = 0.002136 
total_CMD = 7489 
util_bw = 16 
Wasted_Col = 18 
Wasted_Row = 0 
Idle = 7455 

BW Util Bottlenecks: 
RCDc_limit = 12 
RCDWRc_limit = 0 
WTRc_limit = 0 
RTWc_limit = 0 
CCDLc_limit = 6 
rwq = 0 
CCDLc_limit_alone = 6 
WTRc_limit_alone = 0 
RTWc_limit_alone = 0 

Commands details: 
total_CMD = 7489 
n_nop = 7480 
Read = 8 
Write = 0 
L2_Alloc = 0 
L2_WB = 0 
n_act = 1 
n_pre = 0 
n_ref = 0 
n_req = 8 
total_req = 8 

Dual Bus Interface Util: 
issued_total_row = 1 
issued_total_col = 8 
Row_Bus_Util =  0.000134 
CoL_Bus_Util = 0.001068 
Either_Row_CoL_Bus_Util = 0.001202 
Issued_on_Two_Bus_Simul_Util = 0.000000 
issued_two_Eff = 0.000000 
queue_avg = 0.005875 


dram_util_bins: 0 0 0 0 0 0 0 0 0 0
dram_eff_bins: 0 0 0 0 0 0 0 0 0 0
mrqq: max=3 avg=0.00587528
Memory Partition 2: 
Cache L2_bank_004:
MSHR contents

Cache L2_bank_005:
MSHR contents

In Dram Latency Queue (total = 0): 
DRAM[2]: 16 bks, busW=4 BL=8 CL=12, tRRD=6 tCCD=2, tRCD=12 tRAS=28 tRP=12 tRC=40
n_cmd=7489 n_nop=7484 n_act=1 n_pre=0 n_ref_event=0 n_req=4 n_rd=4 n_rd_L2_A=0 n_write=0 n_wr_bk=0 bw_util=0.001068
n_activity=40 dram_eff=0.2
bk0: 0a 7489i bk1: 0a 7490i bk2: 0a 7490i bk3: 0a 7490i bk4: 0a 7490i bk5: 4a 7471i bk6: 0a 7488i bk7: 0a 7488i bk8: 0a 7488i bk9: 0a 7488i bk10: 0a 7488i bk11: 0a 7489i bk12: 0a 7489i bk13: 0a 7489i bk14: 0a 7489i bk15: 0a 7489i 

------------------------------------------------------------------------

Row_Buffer_Locality = 0.750000
Row_Buffer_Locality_read = 0.750000
Row_Buffer_Locality_write = -nan
Bank_Level_Parallism = 1.000000
Bank_Level_Parallism_Col = 1.004513
Bank_Level_Parallism_Ready = 1.000000
write_to_read_ratio_blp_rw_average = 0.000000
GrpLevelPara = 0.000000 

BW Util details:
bwutil = 0.001068 
total_CMD = 7489 
util_bw = 8 
Wasted_Col = 15 
Wasted_Row = 0 
Idle = 7466 

BW Util Bottlenecks: 
RCDc_limit = 12 
RCDWRc_limit = 0 
WTRc_limit = 0 
RTWc_limit = 0 
CCDLc_limit = 3 
rwq = 0 
CCDLc_limit_alone = 3 
WTRc_limit_alone = 0 
RTWc_limit_alone = 0 

Commands details: 
total_CMD = 7489 
n_nop = 7484 
Read = 4 
Write = 0 
L2_Alloc = 0 
L2_WB = 0 
n_act = 1 
n_pre = 0 
n_ref = 0 
n_req = 4 
total_req = 4 

Dual Bus Interface Util: 
issued_total_row = 1 
issued_total_col = 4 
Row_Bus_Util =  0.000134 
CoL_Bus_Util = 0.000534 
Either_Row_CoL_Bus_Util = 0.000668 
Issued_on_Two_Bus_Simul_Util = 0.000000 
issued_two_Eff = 0.000000 
queue_avg = 0.005608 


dram_util_bins: 0 0 0 0 0 0 0 0 0 0
dram_eff_bins: 0 0 0 0 0 0 0 0 0 0
mrqq: max=3 avg=0.00560823
Memory Partition 3: 
Cache L2_bank_006:
MSHR contents

Cache L2_bank_007:
MSHR contents

In Dram Latency Queue (total = 0): 
DRAM[3]: 16 bks, busW=4 BL=8 CL=12, tRRD=6 tCCD=2, tRCD=12 tRAS=28 tRP=12 tRC=40
n_cmd=7489 n_nop=7489 n_act=0 n_pre=0 n_ref_event=0 n_req=0 n_rd=0 n_rd_L2_A=0 n_write=0 n_wr_bk=0 bw_util=0
n_activity=0 dram_eff=-nan
bk0: 0a 7489i bk1: 0a 7489i bk2: 0a 7489i bk3: 0a 7489i bk4: 0a 7489i bk5: 0a 7489i bk6: 0a 7489i bk7: 0a 7489i bk8: 0a 7489i bk9: 0a 7489i bk10: 0a 7489i bk11: 0a 7489i bk12: 0a 7489i bk13: 0a 7489i bk14: 0a 7489i bk15: 0a 7489i 

------------------------------------------------------------------------

Row_Buffer_Locality = -nan
Row_Buffer_Locality_read = -nan
Row_Buffer_Locality_write = -nan
Bank_Level_Parallism = -nan
Bank_Level_Parallism_Col = -nan
Bank_Level_Parallism_Ready = -nan
write_to_read_ratio_blp_rw_average = -nan
GrpLevelPara = -nan 

BW Util details:
bwutil = 0.000000 
total_CMD = 7489 
util_bw = 0 
Wasted_Col = 0 
Wasted_Row = 0 
Idle = 7489 

BW Util Bottlenecks: 
RCDc_limit = 0 
RCDWRc_limit = 0 
WTRc_limit = 0 
RTWc_limit = 0 
CCDLc_limit = 0 
rwq = 0 
CCDLc_limit_alone = 0 
WTRc_limit_alone = 0 
RTWc_limit_alone = 0 

Commands details: 
total_CMD = 7489 
n_nop = 7489 
Read = 0 
Write = 0 
L2_Alloc = 0 
L2_WB = 0 
n_act = 0 
n_pre = 0 
n_ref = 0 
n_req = 0 
total_req = 0 

Dual Bus Interface Util: 
issued_total_row = 0 
issued_total_col = 0 
Row_Bus_Util =  0.000000 
CoL_Bus_Util = 0.000000 
Either_Row_CoL_Bus_Util = 0.000000 
Issued_on_Two_Bus_Simul_Util = 0.000000 
issued_two_Eff = -nan 
queue_avg = 0.000000 


dram_util_bins: 0 0 0 0 0 0 0 0 0 0
dram_eff_bins: 0 0 0 0 0 0 0 0 0 0
mrqq: max=0 avg=0
Memory Partition 4: 
Cache L2_bank_008:
MSHR contents

Cache L2_bank_009:
MSHR contents

In Dram Latency Queue (total = 0): 
DRAM[4]: 16 bks, busW=4 BL=8 CL=12, tRRD=6 tCCD=2, tRCD=12 tRAS=28 tRP=12 tRC=40
n_cmd=7489 n_nop=7489 n_act=0 n_pre=0 n_ref_event=4565658604079112714 n_req=0 n_rd=0 n_rd_L2_A=0 n_write=0 n_wr_bk=0 bw_util=0
n_activity=0 dram_eff=-nan
bk0: 0a 7489i bk1: 0a 7489i bk2: 0a 7489i bk3: 0a 7489i bk4: 0a 7489i bk5: 0a 7489i bk6: 0a 7489i bk7: 0a 7489i bk8: 0a 7489i bk9: 0a 7489i bk10: 0a 7489i bk11: 0a 7489i bk12: 0a 7489i bk13: 0a 7489i bk14: 0a 7489i bk15: 0a 7489i 

------------------------------------------------------------------------

Row_Buffer_Locality = -nan
Row_Buffer_Locality_read = -nan
Row_Buffer_Locality_write = -nan
Bank_Level_Parallism = -nan
Bank_Level_Parallism_Col = -nan
Bank_Level_Parallism_Ready = -nan
write_to_read_ratio_blp_rw_average = -nan
GrpLevelPara = -nan 

BW Util details:
bwutil = 0.000000 
total_CMD = 7489 
util_bw = 0 
Wasted_Col = 0 
Wasted_Row = 0 
Idle = 7489 

BW Util Bottlenecks: 
RCDc_limit = 0 
RCDWRc_limit = 0 
WTRc_limit = 0 
RTWc_limit = 0 
CCDLc_limit = 0 
rwq = 0 
CCDLc_limit_alone = 0 
WTRc_limit_alone = 0 
RTWc_limit_alone = 0 

Commands details: 
total_CMD = 7489 
n_nop = 7489 
Read = 0 
Write = 0 
L2_Alloc = 0 
L2_WB = 0 
n_act = 0 
n_pre = 0 
n_ref = 4565658604079112714 
n_req = 0 
total_req = 0 

Dual Bus Interface Util: 
issued_total_row = 0 
issued_total_col = 0 
Row_Bus_Util =  0.000000 
CoL_Bus_Util = 0.000000 
Either_Row_CoL_Bus_Util = 0.000000 
Issued_on_Two_Bus_Simul_Util = 0.000000 
issued_two_Eff = -nan 
queue_avg = 0.000000 


dram_util_bins: 0 0 0 0 0 0 0 0 0 0
dram_eff_bins: 0 0 0 0 0 0 0 0 0 0
mrqq: max=0 avg=0
Memory Partition 5: 
Cache L2_bank_010:
MSHR contents

Cache L2_bank_011:
MSHR contents

In Dram Latency Queue (total = 0): 
DRAM[5]: 16 bks, busW=4 BL=8 CL=12, tRRD=6 tCCD=2, tRCD=12 tRAS=28 tRP=12 tRC=40
n_cmd=7489 n_nop=7489 n_act=0 n_pre=0 n_ref_event=0 n_req=0 n_rd=0 n_rd_L2_A=0 n_write=0 n_wr_bk=0 bw_util=0
n_activity=0 dram_eff=-nan
bk0: 0a 7489i bk1: 0a 7489i bk2: 0a 7489i bk3: 0a 7489i bk4: 0a 7489i bk5: 0a 7489i bk6: 0a 7489i bk7: 0a 7489i bk8: 0a 7489i bk9: 0a 7489i bk10: 0a 7489i bk11: 0a 7489i bk12: 0a 7489i bk13: 0a 7489i bk14: 0a 7489i bk15: 0a 7489i 

------------------------------------------------------------------------

Row_Buffer_Locality = -nan
Row_Buffer_Locality_read = -nan
Row_Buffer_Locality_write = -nan
Bank_Level_Parallism = -nan
Bank_Level_Parallism_Col = 0.000000
Bank_Level_Parallism_Ready = -nan
write_to_read_ratio_blp_rw_average = 0.000000
GrpLevelPara = 0.000000 

BW Util details:
bwutil = 0.000000 
total_CMD = 7489 
util_bw = 0 
Wasted_Col = 0 
Wasted_Row = 0 
Idle = 7489 

BW Util Bottlenecks: 
RCDc_limit = 0 
RCDWRc_limit = 0 
WTRc_limit = 0 
RTWc_limit = 0 
CCDLc_limit = 0 
rwq = 0 
CCDLc_limit_alone = 0 
WTRc_limit_alone = 0 
RTWc_limit_alone = 0 

Commands details: 
total_CMD = 7489 
n_nop = 7489 
Read = 0 
Write = 0 
L2_Alloc = 0 
L2_WB = 0 
n_act = 0 
n_pre = 0 
n_ref = 0 
n_req = 0 
total_req = 0 

Dual Bus Interface Util: 
issued_total_row = 0 
issued_total_col = 0 
Row_Bus_Util =  0.000000 
CoL_Bus_Util = 0.000000 
Either_Row_CoL_Bus_Util = 0.000000 
Issued_on_Two_Bus_Simul_Util = 0.000000 
issued_two_Eff = -nan 
queue_avg = 0.000000 


dram_util_bins: 0 0 0 0 0 0 0 0 0 0
dram_eff_bins: 0 0 0 0 0 0 0 0 0 0
mrqq: max=0 avg=0

========= L2 cache stats =========
L2_cache_bank[0]: Access = 330, Miss = 14, Miss_rate = 0.042, Pending_hits = 30, Reservation_fails = 249
L2_cache_bank[1]: Access = 171, Miss = 0, Miss_rate = 0.000, Pending_hits = 0, Reservation_fails = 0
L2_cache_bank[2]: Access = 236, Miss = 8, Miss_rate = 0.034, Pending_hits = 12, Reservation_fails = 107
L2_cache_bank[3]: Access = 168, Miss = 0, Miss_rate = 0.000, Pending_hits = 0, Reservation_fails = 0
L2_cache_bank[4]: Access = 168, Miss = 0, Miss_rate = 0.000, Pending_hits = 0, Reservation_fails = 0
L2_cache_bank[5]: Access = 188, Miss = 4, Miss_rate = 0.021, Pending_hits = 0, Reservation_fails = 0
L2_cache_bank[6]: Access = 180, Miss = 0, Miss_rate = 0.000, Pending_hits = 0, Reservation_fails = 0
L2_cache_bank[7]: Access = 185, Miss = 0, Miss_rate = 0.000, Pending_hits = 0, Reservation_fails = 0
L2_cache_bank[8]: Access = 170, Miss = 0, Miss_rate = 0.000, Pending_hits = 0, Reservation_fails = 0
L2_cache_bank[9]: Access = 176, Miss = 0, Miss_rate = 0.000, Pending_hits = 0, Reservation_fails = 0
L2_cache_bank[10]: Access = 172, Miss = 0, Miss_rate = 0.000, Pending_hits = 0, Reservation_fails = 0
L2_cache_bank[11]: Access = 179, Miss = 0, Miss_rate = 0.000, Pending_hits = 0, Reservation_fails = 0
L2_total_cache_accesses = 2323
L2_total_cache_misses = 26
L2_total_cache_miss_rate = 0.0112
L2_total_cache_pending_hits = 42
L2_total_cache_reservation_fails = 356
L2_total_cache_breakdown:
	L2_cache_stats_breakdown[GLOBAL_ACC_R][HIT] = 2084
	L2_cache_stats_breakdown[GLOBAL_ACC_R][HIT_RESERVED] = 0
	L2_cache_stats_breakdown[GLOBAL_ACC_R][MISS] = 2
	L2_cache_stats_breakdown[GLOBAL_ACC_R][RESERVATION_FAIL] = 0
	L2_cache_stats_breakdown[GLOBAL_ACC_R][SECTOR_MISS] = 6
	L2_cache_stats_breakdown[LOCAL_ACC_R][HIT] = 0
	L2_cache_stats_breakdown[LOCAL_ACC_R][HIT_RESERVED] = 0
	L2_cache_stats_breakdown[LOCAL_ACC_R][MISS] = 0
	L2_cache_stats_breakdown[LOCAL_ACC_R][RESERVATION_FAIL] = 0
	L2_cache_stats_breakdown[LOCAL_ACC_R][SECTOR_MISS] = 0
	L2_cache_stats_breakdown[CONST_ACC_R][HIT] = 22
	L2_cache_stats_breakdown[CONST_ACC_R][HIT_RESERVED] = 6
	L2_cache_stats_breakdown[CONST_ACC_R][MISS] = 1
	L2_cache_stats_breakdown[CONST_ACC_R][RESERVATION_FAIL] = 115
	L2_cache_stats_breakdown[CONST_ACC_R][SECTOR_MISS] = 1
	L2_cache_stats_breakdown[TEXTURE_ACC_R][HIT] = 0
	L2_cache_stats_breakdown[TEXTURE_ACC_R][HIT_RESERVED] = 0
	L2_cache_stats_breakdown[TEXTURE_ACC_R][MISS] = 0
	L2_cache_stats_breakdown[TEXTURE_ACC_R][RESERVATION_FAIL] = 0
	L2_cache_stats_breakdown[TEXTURE_ACC_R][SECTOR_MISS] = 0
	L2_cache_stats_breakdown[GLOBAL_ACC_W][HIT] = 17
	L2_cache_stats_breakdown[GLOBAL_ACC_W][HIT_RESERVED] = 0
	L2_cache_stats_breakdown[GLOBAL_ACC_W][MISS] = 0
	L2_cache_stats_breakdown[GLOBAL_ACC_W][RESERVATION_FAIL] = 0
	L2_cache_stats_breakdown[GLOBAL_ACC_W][SECTOR_MISS] = 0
	L2_cache_stats_breakdown[LOCAL_ACC_W][HIT] = 0
	L2_cache_stats_breakdown[LOCAL_ACC_W][HIT_RESERVED] = 0
	L2_cache_stats_breakdown[LOCAL_ACC_W][MISS] = 0
	L2_cache_stats_breakdown[LOCAL_ACC_W][RESERVATION_FAIL] = 0
	L2_cache_stats_breakdown[LOCAL_ACC_W][SECTOR_MISS] = 0
	L2_cache_stats_breakdown[L1_WRBK_ACC][HIT] = 0
	L2_cache_stats_breakdown[L1_WRBK_ACC][HIT_RESERVED] = 0
	L2_cache_stats_breakdown[L1_WRBK_ACC][MISS] = 0
	L2_cache_stats_breakdown[L1_WRBK_ACC][RESERVATION_FAIL] = 0
	L2_cache_stats_breakdown[L1_WRBK_ACC][SECTOR_MISS] = 0
	L2_cache_stats_breakdown[L2_WRBK_ACC][HIT] = 0
	L2_cache_stats_breakdown[L2_WRBK_ACC][HIT_RESERVED] = 0
	L2_cache_stats_breakdown[L2_WRBK_ACC][MISS] = 0
	L2_cache_stats_breakdown[L2_WRBK_ACC][RESERVATION_FAIL] = 0
	L2_cache_stats_breakdown[L2_WRBK_ACC][SECTOR_MISS] = 0
	L2_cache_stats_breakdown[INST_ACC_R][HIT] = 132
	L2_cache_stats_breakdown[INST_ACC_R][HIT_RESERVED] = 36
	L2_cache_stats_breakdown[INST_ACC_R][MISS] = 4
	L2_cache_stats_breakdown[INST_ACC_R][RESERVATION_FAIL] = 241
	L2_cache_stats_breakdown[INST_ACC_R][SECTOR_MISS] = 12
	L2_cache_stats_breakdown[L1_WR_ALLOC_R][HIT] = 0
	L2_cache_stats_breakdown[L1_WR_ALLOC_R][HIT_RESERVED] = 0
	L2_cache_stats_breakdown[L1_WR_ALLOC_R][MISS] = 0
	L2_cache_stats_breakdown[L1_WR_ALLOC_R][RESERVATION_FAIL] = 0
	L2_cache_stats_breakdown[L1_WR_ALLOC_R][SECTOR_MISS] = 0
	L2_cache_stats_breakdown[L2_WR_ALLOC_R][HIT] = 0
	L2_cache_stats_breakdown[L2_WR_ALLOC_R][HIT_RESERVED] = 0
	L2_cache_stats_breakdown[L2_WR_ALLOC_R][MISS] = 0
	L2_cache_stats_breakdown[L2_WR_ALLOC_R][RESERVATION_FAIL] = 0
	L2_cache_stats_breakdown[L2_WR_ALLOC_R][SECTOR_MISS] = 0
	L2_cache_stats_breakdown[GLOBAL_ACC_R][TOTAL_ACCESS] = 2092
	L2_cache_stats_breakdown[CONST_ACC_R][TOTAL_ACCESS] = 30
	L2_cache_stats_breakdown[GLOBAL_ACC_W][TOTAL_ACCESS] = 17
	L2_cache_stats_breakdown[INST_ACC_R][TOTAL_ACCESS] = 184
L2_total_cache_reservation_fail_breakdown:
	L2_cache_stats_fail_breakdown[CONST_ACC_R][MSHR_MERGE_ENRTY_FAIL] = 115
	L2_cache_stats_fail_breakdown[INST_ACC_R][MSHR_MERGE_ENRTY_FAIL] = 241
L2_cache_data_port_util = 0.033
L2_cache_fill_port_util = 0.000

icnt_total_pkts_mem_to_simt=2323
icnt_total_pkts_simt_to_mem=601
LD_mem_lat_dist  0 0 0 0 0 0 0 0 0 0 0 0 0 0 0 0 0 0 0 0 0 0 0 0 0 0 0
ST_mem_lat_dist  0 0 0 0 0 0 0 0 0 0 0 0 0 0 0 0 0 0 0 0 0 0 0 0 0 0 0
----------------------------Interconnect-DETAILS--------------------------------
Class 0:
Packet latency average = 9.21785
	minimum = 5
	maximum = 42
Network latency average = 9.21785
	minimum = 5
	maximum = 42
Slowest packet = 964
Flit latency average = 9.21785
	minimum = 5
	maximum = 42
Slowest flit = 964
Fragmentation average = 0
	minimum = 0
	maximum = 0
Injected packet rate average = 0.0190864
	minimum = 0.00634473 (at node 2)
	maximum = 0.05816 (at node 15)
Accepted packet rate average = 0.0190864
	minimum = 0.00740219 (at node 18)
	maximum = 0.0336623 (at node 0)
Injected flit rate average = 0.0190864
	minimum = 0.00634473 (at node 2)
	maximum = 0.05816 (at node 15)
Accepted flit rate average= 0.0190864
	minimum = 0.00740219 (at node 18)
	maximum = 0.0336623 (at node 0)
Injected packet length average = 1
Accepted packet length average = 1
Total in-flight flits = 0 (0 measured)
====== Overall Traffic Statistics ======
====== Traffic class 0 ======
Packet latency average = 9.21785 (1 samples)
	minimum = 5 (1 samples)
	maximum = 42 (1 samples)
Network latency average = 9.21785 (1 samples)
	minimum = 5 (1 samples)
	maximum = 42 (1 samples)
Flit latency average = 9.21785 (1 samples)
	minimum = 5 (1 samples)
	maximum = 42 (1 samples)
Fragmentation average = 0 (1 samples)
	minimum = 0 (1 samples)
	maximum = 0 (1 samples)
Injected packet rate average = 0.0190864 (1 samples)
	minimum = 0.00634473 (1 samples)
	maximum = 0.05816 (1 samples)
Accepted packet rate average = 0.0190864 (1 samples)
	minimum = 0.00740219 (1 samples)
	maximum = 0.0336623 (1 samples)
Injected flit rate average = 0.0190864 (1 samples)
	minimum = 0.00634473 (1 samples)
	maximum = 0.05816 (1 samples)
Accepted flit rate average = 0.0190864 (1 samples)
	minimum = 0.00740219 (1 samples)
	maximum = 0.0336623 (1 samples)
Injected packet size average = 1 (1 samples)
Accepted packet size average = 1 (1 samples)
Hops average = 1 (1 samples)
----------------------------END-of-Interconnect-DETAILS-------------------------


gpgpu_simulation_time = 0 days, 0 hrs, 0 min, 2 sec (2 sec)
gpgpu_simulation_rate = 622680 (inst/sec)
gpgpu_simulation_rate = 2837 (cycle/sec)
gpgpu_silicon_slowdown = 246739x
GPGPU-Sim PTX: Setting up arguments for 8 bytes starting at 0x7ffdb101fc28..
GPGPU-Sim PTX: Setting up arguments for 8 bytes starting at 0x7ffdb101fc20..
GPGPU-Sim PTX: Setting up arguments for 8 bytes starting at 0x7ffdb101fc18..
GPGPU-Sim PTX: Setting up arguments for 8 bytes starting at 0x7ffdb101fc10..
GPGPU-Sim PTX: Setting up arguments for 4 bytes starting at 0x7ffdb101fc0c..

GPGPU-Sim PTX: cudaLaunch for 0x0x55d17569cf9e (mode=performance simulation) on stream 0
GPGPU-Sim PTX: finding reconvergence points for '_Z7Kernel2PbS_S_S_i'...
GPGPU-Sim PTX: Finding dominators for '_Z7Kernel2PbS_S_S_i'...
GPGPU-Sim PTX: Finding immediate dominators for '_Z7Kernel2PbS_S_S_i'...
GPGPU-Sim PTX: Finding postdominators for '_Z7Kernel2PbS_S_S_i'...
GPGPU-Sim PTX: Finding immediate postdominators for '_Z7Kernel2PbS_S_S_i'...
GPGPU-Sim PTX: pre-decoding instructions for '_Z7Kernel2PbS_S_S_i'...
GPGPU-Sim PTX: reconvergence points for _Z7Kernel2PbS_S_S_i...
GPGPU-Sim PTX:  1 (potential) branch divergence @  PC=0x230 (a.1.sm_52.ptx:128) @%p1 bra BB1_3;
GPGPU-Sim PTX:    immediate post dominator      @  PC=0x2c0 (a.1.sm_52.ptx:150) ret;
GPGPU-Sim PTX:  2 (potential) branch divergence @  PC=0x260 (a.1.sm_52.ptx:135) @%p2 bra BB1_3;
GPGPU-Sim PTX:    immediate post dominator      @  PC=0x2c0 (a.1.sm_52.ptx:150) ret;
GPGPU-Sim PTX: ... end of reconvergence points for _Z7Kernel2PbS_S_S_i
GPGPU-Sim PTX: ... done pre-decoding instructions for '_Z7Kernel2PbS_S_S_i'.
GPGPU-Sim PTX: pushing kernel '_Z7Kernel2PbS_S_S_i' to stream 0, gridDim= (128,1,1) blockDim = (512,1,1) 
GPGPU-Sim uArch: Shader 4 bind to kernel 2 '_Z7Kernel2PbS_S_S_i'
GPGPU-Sim uArch: CTA/core = 3, limited by: threads
GPGPU-Sim uArch: Shader 5 bind to kernel 2 '_Z7Kernel2PbS_S_S_i'
GPGPU-Sim uArch: Shader 6 bind to kernel 2 '_Z7Kernel2PbS_S_S_i'
GPGPU-Sim uArch: Shader 7 bind to kernel 2 '_Z7Kernel2PbS_S_S_i'
GPGPU-Sim uArch: Shader 8 bind to kernel 2 '_Z7Kernel2PbS_S_S_i'
GPGPU-Sim uArch: Shader 9 bind to kernel 2 '_Z7Kernel2PbS_S_S_i'
GPGPU-Sim uArch: Shader 10 bind to kernel 2 '_Z7Kernel2PbS_S_S_i'
GPGPU-Sim uArch: Shader 11 bind to kernel 2 '_Z7Kernel2PbS_S_S_i'
GPGPU-Sim uArch: Shader 12 bind to kernel 2 '_Z7Kernel2PbS_S_S_i'
GPGPU-Sim uArch: Shader 13 bind to kernel 2 '_Z7Kernel2PbS_S_S_i'
GPGPU-Sim uArch: Shader 14 bind to kernel 2 '_Z7Kernel2PbS_S_S_i'
GPGPU-Sim uArch: Shader 0 bind to kernel 2 '_Z7Kernel2PbS_S_S_i'
GPGPU-Sim uArch: Shader 1 bind to kernel 2 '_Z7Kernel2PbS_S_S_i'
GPGPU-Sim uArch: Shader 2 bind to kernel 2 '_Z7Kernel2PbS_S_S_i'
GPGPU-Sim uArch: Shader 3 bind to kernel 2 '_Z7Kernel2PbS_S_S_i'
Destroy streams for kernel 2: size 0
kernel_name = _Z7Kernel2PbS_S_S_i 
kernel_launch_uid = 2 
gpu_sim_cycle = 2670
gpu_sim_insn = 1114192
gpu_ipc =     417.3004
gpu_tot_sim_cycle = 8344
gpu_tot_sim_insn = 2359552
gpu_tot_ipc =     282.7843
gpu_tot_issued_cta = 256
gpu_occupancy = 91.6450% 
gpu_tot_occupancy = 89.7815% 
max_total_param_size = 0
gpu_stall_dramfull = 0
gpu_stall_icnt2sh    = 0
partiton_level_parallism =       0.2150
partiton_level_parallism_total  =       0.1408
partiton_level_parallism_util =       1.4794
partiton_level_parallism_util_total  =       1.4743
L2_BW  =      18.4569 GB/Sec
L2_BW_total  =      12.1423 GB/Sec
gpu_total_sim_rate=786517

========= Core cache stats =========
L1I_cache:
	L1I_total_cache_accesses = 43144
	L1I_total_cache_misses = 2401
	L1I_total_cache_miss_rate = 0.0557
	L1I_total_cache_pending_hits = 0
	L1I_total_cache_reservation_fails = 13566
L1D_cache:
	L1D_cache_core[0]: Access = 303, Miss = 90, Miss_rate = 0.297, Pending_hits = 180, Reservation_fails = 0
	L1D_cache_core[1]: Access = 276, Miss = 71, Miss_rate = 0.257, Pending_hits = 204, Reservation_fails = 0
	L1D_cache_core[2]: Access = 276, Miss = 71, Miss_rate = 0.257, Pending_hits = 204, Reservation_fails = 0
	L1D_cache_core[3]: Access = 288, Miss = 72, Miss_rate = 0.250, Pending_hits = 216, Reservation_fails = 0
	L1D_cache_core[4]: Access = 288, Miss = 72, Miss_rate = 0.250, Pending_hits = 216, Reservation_fails = 0
	L1D_cache_core[5]: Access = 272, Miss = 68, Miss_rate = 0.250, Pending_hits = 202, Reservation_fails = 0
	L1D_cache_core[6]: Access = 276, Miss = 71, Miss_rate = 0.257, Pending_hits = 204, Reservation_fails = 0
	L1D_cache_core[7]: Access = 272, Miss = 68, Miss_rate = 0.250, Pending_hits = 204, Reservation_fails = 0
	L1D_cache_core[8]: Access = 272, Miss = 68, Miss_rate = 0.250, Pending_hits = 204, Reservation_fails = 0
	L1D_cache_core[9]: Access = 276, Miss = 71, Miss_rate = 0.257, Pending_hits = 204, Reservation_fails = 0
	L1D_cache_core[10]: Access = 264, Miss = 70, Miss_rate = 0.265, Pending_hits = 192, Reservation_fails = 0
	L1D_cache_core[11]: Access = 288, Miss = 72, Miss_rate = 0.250, Pending_hits = 216, Reservation_fails = 0
	L1D_cache_core[12]: Access = 288, Miss = 72, Miss_rate = 0.250, Pending_hits = 216, Reservation_fails = 0
	L1D_cache_core[13]: Access = 288, Miss = 72, Miss_rate = 0.250, Pending_hits = 216, Reservation_fails = 0
	L1D_cache_core[14]: Access = 260, Miss = 67, Miss_rate = 0.258, Pending_hits = 192, Reservation_fails = 0
	L1D_total_cache_accesses = 4187
	L1D_total_cache_misses = 1075
	L1D_total_cache_miss_rate = 0.2567
	L1D_total_cache_pending_hits = 3070
	L1D_total_cache_reservation_fails = 0
	L1D_cache_data_port_util = 0.000
	L1D_cache_fill_port_util = 0.012
L1C_cache:
	L1C_total_cache_accesses = 24576
	L1C_total_cache_misses = 480
	L1C_total_cache_miss_rate = 0.0195
	L1C_total_cache_pending_hits = 0
	L1C_total_cache_reservation_fails = 3389
L1T_cache:
	L1T_total_cache_accesses = 0
	L1T_total_cache_misses = 0
	L1T_total_cache_pending_hits = 0
	L1T_total_cache_reservation_fails = 0

Total_core_cache_stats:
	Total_core_cache_stats_breakdown[GLOBAL_ACC_R][HIT] = 33
	Total_core_cache_stats_breakdown[GLOBAL_ACC_R][HIT_RESERVED] = 3070
	Total_core_cache_stats_breakdown[GLOBAL_ACC_R][MISS] = 1035
	Total_core_cache_stats_breakdown[GLOBAL_ACC_R][RESERVATION_FAIL] = 0
	Total_core_cache_stats_breakdown[GLOBAL_ACC_R][SECTOR_MISS] = 0
	Total_core_cache_stats_breakdown[LOCAL_ACC_R][HIT] = 0
	Total_core_cache_stats_breakdown[LOCAL_ACC_R][HIT_RESERVED] = 0
	Total_core_cache_stats_breakdown[LOCAL_ACC_R][MISS] = 0
	Total_core_cache_stats_breakdown[LOCAL_ACC_R][RESERVATION_FAIL] = 0
	Total_core_cache_stats_breakdown[LOCAL_ACC_R][SECTOR_MISS] = 0
	Total_core_cache_stats_breakdown[CONST_ACC_R][HIT] = 24096
	Total_core_cache_stats_breakdown[CONST_ACC_R][HIT_RESERVED] = 0
	Total_core_cache_stats_breakdown[CONST_ACC_R][MISS] = 480
	Total_core_cache_stats_breakdown[CONST_ACC_R][RESERVATION_FAIL] = 3389
	Total_core_cache_stats_breakdown[CONST_ACC_R][SECTOR_MISS] = 0
	Total_core_cache_stats_breakdown[TEXTURE_ACC_R][HIT] = 0
	Total_core_cache_stats_breakdown[TEXTURE_ACC_R][HIT_RESERVED] = 0
	Total_core_cache_stats_breakdown[TEXTURE_ACC_R][MISS] = 0
	Total_core_cache_stats_breakdown[TEXTURE_ACC_R][RESERVATION_FAIL] = 0
	Total_core_cache_stats_breakdown[TEXTURE_ACC_R][SECTOR_MISS] = 0
	Total_core_cache_stats_breakdown[GLOBAL_ACC_W][HIT] = 9
	Total_core_cache_stats_breakdown[GLOBAL_ACC_W][HIT_RESERVED] = 0
	Total_core_cache_stats_breakdown[GLOBAL_ACC_W][MISS] = 40
	Total_core_cache_stats_breakdown[GLOBAL_ACC_W][RESERVATION_FAIL] = 0
	Total_core_cache_stats_breakdown[GLOBAL_ACC_W][SECTOR_MISS] = 0
	Total_core_cache_stats_breakdown[LOCAL_ACC_W][HIT] = 0
	Total_core_cache_stats_breakdown[LOCAL_ACC_W][HIT_RESERVED] = 0
	Total_core_cache_stats_breakdown[LOCAL_ACC_W][MISS] = 0
	Total_core_cache_stats_breakdown[LOCAL_ACC_W][RESERVATION_FAIL] = 0
	Total_core_cache_stats_breakdown[LOCAL_ACC_W][SECTOR_MISS] = 0
	Total_core_cache_stats_breakdown[L1_WRBK_ACC][HIT] = 0
	Total_core_cache_stats_breakdown[L1_WRBK_ACC][HIT_RESERVED] = 0
	Total_core_cache_stats_breakdown[L1_WRBK_ACC][MISS] = 0
	Total_core_cache_stats_breakdown[L1_WRBK_ACC][RESERVATION_FAIL] = 0
	Total_core_cache_stats_breakdown[L1_WRBK_ACC][SECTOR_MISS] = 0
	Total_core_cache_stats_breakdown[L2_WRBK_ACC][HIT] = 0
	Total_core_cache_stats_breakdown[L2_WRBK_ACC][HIT_RESERVED] = 0
	Total_core_cache_stats_breakdown[L2_WRBK_ACC][MISS] = 0
	Total_core_cache_stats_breakdown[L2_WRBK_ACC][RESERVATION_FAIL] = 0
	Total_core_cache_stats_breakdown[L2_WRBK_ACC][SECTOR_MISS] = 0
	Total_core_cache_stats_breakdown[INST_ACC_R][HIT] = 40743
	Total_core_cache_stats_breakdown[INST_ACC_R][HIT_RESERVED] = 0
	Total_core_cache_stats_breakdown[INST_ACC_R][MISS] = 2401
	Total_core_cache_stats_breakdown[INST_ACC_R][RESERVATION_FAIL] = 13566
	Total_core_cache_stats_breakdown[INST_ACC_R][SECTOR_MISS] = 0
	Total_core_cache_stats_breakdown[L1_WR_ALLOC_R][HIT] = 0
	Total_core_cache_stats_breakdown[L1_WR_ALLOC_R][HIT_RESERVED] = 0
	Total_core_cache_stats_breakdown[L1_WR_ALLOC_R][MISS] = 0
	Total_core_cache_stats_breakdown[L1_WR_ALLOC_R][RESERVATION_FAIL] = 0
	Total_core_cache_stats_breakdown[L1_WR_ALLOC_R][SECTOR_MISS] = 0
	Total_core_cache_stats_breakdown[L2_WR_ALLOC_R][HIT] = 0
	Total_core_cache_stats_breakdown[L2_WR_ALLOC_R][HIT_RESERVED] = 0
	Total_core_cache_stats_breakdown[L2_WR_ALLOC_R][MISS] = 0
	Total_core_cache_stats_breakdown[L2_WR_ALLOC_R][RESERVATION_FAIL] = 0
	Total_core_cache_stats_breakdown[L2_WR_ALLOC_R][SECTOR_MISS] = 0
	Total_core_cache_stats_breakdown[GLOBAL_ACC_R][TOTAL_ACCESS] = 4138
	Total_core_cache_stats_breakdown[CONST_ACC_R][TOTAL_ACCESS] = 24576
	Total_core_cache_stats_breakdown[GLOBAL_ACC_W][TOTAL_ACCESS] = 49
	Total_core_cache_stats_breakdown[INST_ACC_R][TOTAL_ACCESS] = 43144

Total_core_cache_fail_stats:
	Total_core_cache_fail_stats_breakdown[CONST_ACC_R][MSHR_MERGE_ENRTY_FAIL] = 3389
	Total_core_cache_fail_stats_breakdown[INST_ACC_R][MSHR_MERGE_ENRTY_FAIL] = 13566
ctas_completed 256, Shader 0 warp_id issue ditsribution:
warp_id:
0, 1, 2, 3, 4, 5, 6, 7, 8, 9, 10, 11, 12, 13, 14, 15, 16, 17, 18, 19, 20, 21, 22, 23, 24, 25, 26, 27, 28, 29, 30, 31, 32, 33, 34, 35, 36, 37, 38, 39, 40, 41, 42, 43, 44, 45, 46, 47, 
distro:
261, 74, 74, 74, 74, 74, 74, 74, 74, 74, 74, 74, 74, 74, 74, 74, 96, 96, 96, 96, 96, 96, 96, 96, 96, 107, 96, 96, 96, 96, 96, 96, 114, 114, 114, 114, 114, 114, 114, 114, 114, 114, 114, 114, 114, 114, 114, 114, 
gpgpu_n_tot_thrd_icount = 2499168
gpgpu_n_tot_w_icount = 78099
gpgpu_n_stall_shd_mem = 3389
gpgpu_n_mem_read_local = 0
gpgpu_n_mem_write_local = 0
gpgpu_n_mem_read_global = 1035
gpgpu_n_mem_write_global = 49
gpgpu_n_mem_texture = 0
gpgpu_n_mem_const = 15
gpgpu_n_load_insn  = 131114
gpgpu_n_store_insn = 49
gpgpu_n_shmem_insn = 0
gpgpu_n_sstarr_insn = 0
gpgpu_n_tex_insn = 0
gpgpu_n_const_mem_insn = 0
gpgpu_n_param_mem_insn = 786432
gpgpu_n_shmem_bkconflict = 0
gpgpu_n_cache_bkconflict = 0
gpgpu_n_intrawarp_mshr_merge = 0
gpgpu_n_cmem_portconflict = 3389
gpgpu_stall_shd_mem[c_mem][resource_stall] = 3389
gpgpu_stall_shd_mem[s_mem][bk_conf] = 0
gpgpu_stall_shd_mem[gl_mem][resource_stall] = 0
gpgpu_stall_shd_mem[gl_mem][coal_stall] = 0
gpgpu_stall_shd_mem[gl_mem][data_port_stall] = 0
gpu_reg_bank_conflict_stalls = 0
Warp Occupancy Distribution:
Stall:27054	W0_Idle:34277	W0_Scoreboard:28832	W1:275	W2:0	W3:0	W4:0	W5:0	W6:0	W7:0	W8:0	W9:0	W10:0	W11:0	W12:0	W13:0	W14:0	W15:0	W16:0	W17:0	W18:0	W19:0	W20:0	W21:0	W22:0	W23:0	W24:0	W25:0	W26:0	W27:0	W28:0	W29:0	W30:0	W31:0	W32:77824
single_issue_nums: WS0:39143	WS1:38956	
dual_issue_nums: WS0:0	WS1:0	
traffic_breakdown_coretomem[CONST_ACC_R] = 120 {8:15,}
traffic_breakdown_coretomem[GLOBAL_ACC_R] = 8280 {8:1035,}
traffic_breakdown_coretomem[GLOBAL_ACC_W] = 1960 {40:49,}
traffic_breakdown_coretomem[INST_ACC_R] = 608 {8:76,}
traffic_breakdown_memtocore[CONST_ACC_R] = 1200 {40:30,}
traffic_breakdown_memtocore[GLOBAL_ACC_R] = 165600 {40:4140,}
traffic_breakdown_memtocore[GLOBAL_ACC_W] = 392 {8:49,}
traffic_breakdown_memtocore[INST_ACC_R] = 12160 {40:304,}
maxmflatency = 267 
max_icnt2mem_latency = 45 
maxmrqlatency = 21 
max_icnt2sh_latency = 44 
averagemflatency = 138 
avg_icnt2mem_latency = 11 
avg_mrq_latency = 8 
avg_icnt2sh_latency = 11 
mrq_lat_table:13 	2 	0 	12 	7 	0 	0 	0 	0 	0 	0 	0 	0 	0 	0 	0 	0 	0 	0 	0 	0 	0 	0 	0 	0 	0 	0 	0 	0 	0 	0 	0 	
dq_lat_table:0 	0 	0 	0 	0 	0 	0 	0 	0 	0 	0 	0 	0 	0 	0 	0 	0 	0 	0 	0 	0 	0 	0 	0 	0 	0 	0 	0 	0 	0 	0 	0 	
mf_lat_table:0 	0 	0 	0 	0 	0 	0 	4208 	11 	0 	0 	0 	0 	0 	0 	0 	0 	0 	0 	0 	0 	0 	0 	0 	0 	0 	0 	0 	0 	0 	0 	0 	
icnt2mem_lat_table:0 	0 	46 	37 	8 	1084 	0 	0 	0 	0 	0 	0 	0 	0 	0 	0 	0 	0 	0 	0 	0 	0 	0 	0 	
icnt2sh_lat_table:0 	0 	2242 	1157 	660 	160 	0 	0 	0 	0 	0 	0 	0 	0 	0 	0 	0 	0 	0 	0 	0 	0 	0 	0 	
mf_lat_pw_table:0 	0 	0 	0 	0 	0 	0 	15 	0 	0 	0 	0 	0 	0 	0 	0 	0 	0 	0 	0 	0 	0 	0 	0 	0 	0 	0 	0 	0 	0 	0 	0 	
maximum concurrent accesses to same row:
dram[0]:         4         0         0         0         0         0         0         0         0         0         0         0         0         0         0         0 
dram[1]:         0         0         0         0         0         0         0         0         0         0         0         0         0         0         0         0 
dram[2]:         0         0         0         0         0         0         0         0         0         0         0         0         0         0         0         0 
dram[3]:         0         0         0         0         0         0         0         0         0         0         0         0         0         0         0         0 
dram[4]:         0         0         0         0         0         0         0         0         0         0         0         0         0         0         0         0 
dram[5]:         0         0         0         0         0         0         0         0         0         0         0         0         0         0         0         0 
maximum service time to same row:
dram[0]:       601         0         0         0         0         0         0         0         0         0         0         0         0         0         0         0 
[...]
dram[3]:       1436      1262      1261      1559      1444      1446      1345      1414      1288      1409      1359      1416      1306      1578      1289      1260
dram[4]:       1328      1464      1484      1239      1546      1739      1497      1429      1410      1430      1478      1276      1326      1406      1530      1209
dram[5]:       1385      1327      1380      1378      1600      1489      1556      1657      1448      1481      1409      1370      1404      1507      1475      1519
Memory Partition 0: 
Cache L2_bank_000:
MSHR contents

Cache L2_bank_001:
MSHR contents

In Dram Latency Queue (total = 0): 
DRAM[0]: 16 bks, busW=4 BL=8 CL=12, tRRD=6 tCCD=2, tRCD=12 tRAS=28 tRP=12 tRC=40
n_cmd=710548 n_nop=579907 n_act=12725 n_pre=12709 n_ref_event=94358138646096 n_req=104002 n_rd=97529 n_rd_L2_A=0 n_write=0 n_wr_bk=9353 bw_util=0.3008
n_activity=404009 dram_eff=0.5291
bk0: 6873a 633965i bk1: 6981a 629962i bk2: 6586a 636797i bk3: 6539a 633782i bk4: 6610a 624454i bk5: 6701a 627193i bk6: 6303a 619283i bk7: 6425a 621199i bk8: 5636a 657783i bk9: 5724a 656788i bk10: 5528a 668335i bk11: 5248a 670838i bk12: 5584a 662292i bk13: 5618a 664625i bk14: 5637a 642758i bk15: 5536a 644073i 

------------------------------------------------------------------------

Row_Buffer_Locality = 0.877724
Row_Buffer_Locality_read = 0.907556
Row_Buffer_Locality_write = 0.428240
Bank_Level_Parallism = 3.260429
Bank_Level_Parallism_Col = 0.674869
Bank_Level_Parallism_Ready = 1.651788
write_to_read_ratio_blp_rw_average = 0.000000
GrpLevelPara = 0.000000 

BW Util details:
bwutil = 0.300844 
total_CMD = 710548 
util_bw = 213764 
Wasted_Col = 113104 
Wasted_Row = 34916 
Idle = 348764 

BW Util Bottlenecks: 
RCDc_limit = 56362 
RCDWRc_limit = 11525 
WTRc_limit = 20687 
RTWc_limit = 78146 
CCDLc_limit = 60188 
rwq = 0 
CCDLc_limit_alone = 47421 
WTRc_limit_alone = 19603 
RTWc_limit_alone = 66463 

Commands details: 
total_CMD = 710548 
n_nop = 579907 
Read = 97529 
Write = 0 
L2_Alloc = 0 
L2_WB = 9353 
n_act = 12725 
n_pre = 12709 
n_ref = 94358138646096 
n_req = 104002 
total_req = 106882 

Dual Bus Interface Util: 
issued_total_row = 25434 
issued_total_col = 106882 
Row_Bus_Util =  0.035795 
CoL_Bus_Util = 0.150422 
Either_Row_CoL_Bus_Util = 0.183859 
Issued_on_Two_Bus_Simul_Util = 0.002357 
issued_two_Eff = 0.012821 
queue_avg = 5.917603 


dram_util_bins: 0 0 0 0 0 0 0 0 0 0
dram_eff_bins: 0 0 0 0 0 0 0 0 0 0
mrqq: max=64 avg=5.9176
Memory Partition 1: 
Cache L2_bank_002:
MSHR contents

Cache L2_bank_003:
MSHR contents

In Dram Latency Queue (total = 0): 
DRAM[1]: 16 bks, busW=4 BL=8 CL=12, tRRD=6 tCCD=2, tRCD=12 tRAS=28 tRP=12 tRC=40
n_cmd=710548 n_nop=580596 n_act=12757 n_pre=12741 n_ref_event=0 n_req=103274 n_rd=96894 n_rd_L2_A=0 n_write=0 n_wr_bk=9157 bw_util=0.2985
n_activity=406102 dram_eff=0.5223
bk0: 7114a 635043i bk1: 7013a 631026i bk2: 6257a 636169i bk3: 6441a 634474i bk4: 6686a 628020i bk5: 6606a 628544i bk6: 6166a 626606i bk7: 6235a 625520i bk8: 6036a 656060i bk9: 5728a 658359i bk10: 5144a 671132i bk11: 5200a 670458i bk12: 5660a 660406i bk13: 5772a 664698i bk14: 5345a 646145i bk15: 5491a 642702i 

------------------------------------------------------------------------

Row_Buffer_Locality = 0.876532
Row_Buffer_Locality_read = 0.906372
Row_Buffer_Locality_write = 0.423354
Bank_Level_Parallism = 3.186745
Bank_Level_Parallism_Col = 1.004557
Bank_Level_Parallism_Ready = 1.629359
write_to_read_ratio_blp_rw_average = 0.000000
GrpLevelPara = 0.000000 

BW Util details:
bwutil = 0.298505 
total_CMD = 710548 
util_bw = 212102 
Wasted_Col = 113772 
Wasted_Row = 37329 
Idle = 347345 

BW Util Bottlenecks: 
RCDc_limit = 57713 
RCDWRc_limit = 11730 
WTRc_limit = 20532 
RTWc_limit = 78182 
CCDLc_limit = 59723 
rwq = 0 
CCDLc_limit_alone = 46953 
WTRc_limit_alone = 19546 
RTWc_limit_alone = 66398 

Commands details: 
total_CMD = 710548 
n_nop = 580596 
Read = 96894 
Write = 0 
L2_Alloc = 0 
L2_WB = 9157 
n_act = 12757 
n_pre = 12741 
n_ref = 0 
n_req = 103274 
total_req = 106051 

Dual Bus Interface Util: 
issued_total_row = 25498 
issued_total_col = 106051 
Row_Bus_Util =  0.035885 
CoL_Bus_Util = 0.149252 
Either_Row_CoL_Bus_Util = 0.182890 
Issued_on_Two_Bus_Simul_Util = 0.002248 
issued_two_Eff = 0.012289 
queue_avg = 5.848445 


dram_util_bins: 0 0 0 0 0 0 0 0 0 0
dram_eff_bins: 0 0 0 0 0 0 0 0 0 0
mrqq: max=64 avg=5.84844
Memory Partition 2: 
Cache L2_bank_004:
MSHR contents

Cache L2_bank_005:
MSHR contents

In Dram Latency Queue (total = 0): 
DRAM[2]: 16 bks, busW=4 BL=8 CL=12, tRRD=6 tCCD=2, tRCD=12 tRAS=28 tRP=12 tRC=40
n_cmd=710548 n_nop=579558 n_act=12924 n_pre=12908 n_ref_event=0 n_req=103901 n_rd=97434 n_rd_L2_A=0 n_write=0 n_wr_bk=9339 bw_util=0.3005
n_activity=404202 dram_eff=0.5283
bk0: 6975a 631182i bk1: 6823a 630055i bk2: 6231a 636683i bk3: 6603a 635027i bk4: 6660a 627355i bk5: 6697a 625024i bk6: 6259a 622625i bk7: 6544a 620183i bk8: 5564a 654684i bk9: 5788a 659909i bk10: 5260a 671586i bk11: 5516a 671275i bk12: 5777a 662519i bk13: 5707a 660530i bk14: 5358a 645238i bk15: 5672a 642966i 

------------------------------------------------------------------------

Row_Buffer_Locality = 0.875670
Row_Buffer_Locality_read = 0.906152
Row_Buffer_Locality_write = 0.416422
Bank_Level_Parallism = 3.234738
Bank_Level_Parallism_Col = 1.004513
Bank_Level_Parallism_Ready = 1.632794
write_to_read_ratio_blp_rw_average = 0.000000
GrpLevelPara = 0.000000 

BW Util details:
bwutil = 0.300537 
total_CMD = 710548 
util_bw = 213546 
Wasted_Col = 113434 
Wasted_Row = 36606 
Idle = 346962 

BW Util Bottlenecks: 
RCDc_limit = 57829 
RCDWRc_limit = 11644 
WTRc_limit = 20192 
RTWc_limit = 79975 
CCDLc_limit = 60308 
rwq = 0 
CCDLc_limit_alone = 46731 
WTRc_limit_alone = 19140 
RTWc_limit_alone = 67450 

Commands details: 
total_CMD = 710548 
n_nop = 579558 
Read = 97434 
Write = 0 
L2_Alloc = 0 
L2_WB = 9339 
n_act = 12924 
n_pre = 12908 
n_ref = 0 
n_req = 103901 
total_req = 106773 

Dual Bus Interface Util: 
issued_total_row = 25832 
issued_total_col = 106773 
Row_Bus_Util =  0.036355 
CoL_Bus_Util = 0.150269 
Either_Row_CoL_Bus_Util = 0.184351 
Issued_on_Two_Bus_Simul_Util = 0.002273 
issued_two_Eff = 0.012329 
queue_avg = 6.050524 


dram_util_bins: 0 0 0 0 0 0 0 0 0 0
dram_eff_bins: 0 0 0 0 0 0 0 0 0 0
mrqq: max=64 avg=6.05052
Memory Partition 3: 
Cache L2_bank_006:
MSHR contents

Cache L2_bank_007:
MSHR contents

In Dram Latency Queue (total = 0): 
DRAM[3]: 16 bks, busW=4 BL=8 CL=12, tRRD=6 tCCD=2, tRCD=12 tRAS=28 tRP=12 tRC=40
n_cmd=710548 n_nop=581133 n_act=12677 n_pre=12661 n_ref_event=0 n_req=102741 n_rd=96364 n_rd_L2_A=0 n_write=0 n_wr_bk=9270 bw_util=0.2973
n_activity=402861 dram_eff=0.5244
bk0: 6920a 633364i bk1: 7104a 631164i bk2: 6174a 638946i bk3: 6454a 635876i bk4: 6646a 631830i bk5: 6470a 626157i bk6: 5994a 627464i bk7: 6117a 622716i bk8: 5936a 654989i bk9: 5876a 655148i bk10: 4944a 672830i bk11: 5312a 673228i bk12: 5725a 663173i bk13: 5722a 663199i bk14: 5435a 644041i bk15: 5535a 645002i 

------------------------------------------------------------------------

Row_Buffer_Locality = 0.876670
Row_Buffer_Locality_read = 0.907248
Row_Buffer_Locality_write = 0.414615
Bank_Level_Parallism = 3.191910
Bank_Level_Parallism_Col = 2.971281
Bank_Level_Parallism_Ready = 1.619090
write_to_read_ratio_blp_rw_average = 0.306609
GrpLevelPara = 1.967909 

BW Util details:
bwutil = 0.297331 
total_CMD = 710548 
util_bw = 211268 
Wasted_Col = 113904 
Wasted_Row = 36054 
Idle = 349322 

BW Util Bottlenecks: 
RCDc_limit = 57345 
RCDWRc_limit = 11748 
WTRc_limit = 19952 
RTWc_limit = 82534 
CCDLc_limit = 60809 
rwq = 0 
CCDLc_limit_alone = 47264 
WTRc_limit_alone = 19032 
RTWc_limit_alone = 69909 

Commands details: 
total_CMD = 710548 
n_nop = 581133 
Read = 96364 
Write = 0 
L2_Alloc = 0 
L2_WB = 9270 
n_act = 12677 
n_pre = 12661 
n_ref = 0 
n_req = 102741 
total_req = 105634 

Dual Bus Interface Util: 
issued_total_row = 25338 
issued_total_col = 105634 
Row_Bus_Util =  0.035660 
CoL_Bus_Util = 0.148666 
Either_Row_CoL_Bus_Util = 0.182134 
Issued_on_Two_Bus_Simul_Util = 0.002191 
issued_two_Eff = 0.012031 
queue_avg = 5.796809 


dram_util_bins: 0 0 0 0 0 0 0 0 0 0
dram_eff_bins: 0 0 0 0 0 0 0 0 0 0
mrqq: max=64 avg=5.79681
Memory Partition 4: 
Cache L2_bank_008:
MSHR contents

Cache L2_bank_009:
MSHR contents

In Dram Latency Queue (total = 0): 
DRAM[4]: 16 bks, busW=4 BL=8 CL=12, tRRD=6 tCCD=2, tRCD=12 tRAS=28 tRP=12 tRC=40
n_cmd=710548 n_nop=581380 n_act=12671 n_pre=12655 n_ref_event=4565658604079112714 n_req=102605 n_rd=96238 n_rd_L2_A=0 n_write=0 n_wr_bk=9229 bw_util=0.2969
n_activity=401458 dram_eff=0.5254
bk0: 6977a 634178i bk1: 6876a 631594i bk2: 6456a 634720i bk3: 6338a 639319i bk4: 6661a 629957i bk5: 6525a 626391i bk6: 6230a 626012i bk7: 6149a 626805i bk8: 5764a 653999i bk9: 5788a 657036i bk10: 5272a 671052i bk11: 4944a 674820i bk12: 5884a 664059i bk13: 5858a 660821i bk14: 5489a 645621i bk15: 5027a 648090i 

------------------------------------------------------------------------

Row_Buffer_Locality = 0.876595
Row_Buffer_Locality_read = 0.906316
Row_Buffer_Locality_write = 0.427360
Bank_Level_Parallism = 3.188377
Bank_Level_Parallism_Col = 2.966728
Bank_Level_Parallism_Ready = 1.632603
write_to_read_ratio_blp_rw_average = 0.295784
GrpLevelPara = 1.952450 

BW Util details:
bwutil = 0.296861 
total_CMD = 710548 
util_bw = 210934 
Wasted_Col = 112566 
Wasted_Row = 36320 
Idle = 350728 

BW Util Bottlenecks: 
RCDc_limit = 57975 
RCDWRc_limit = 11231 
WTRc_limit = 20740 
RTWc_limit = 77485 
CCDLc_limit = 59887 
rwq = 0 
CCDLc_limit_alone = 46953 
WTRc_limit_alone = 19663 
RTWc_limit_alone = 65628 

Commands details: 
total_CMD = 710548 
n_nop = 581380 
Read = 96238 
Write = 0 
L2_Alloc = 0 
L2_WB = 9229 
n_act = 12671 
n_pre = 12655 
n_ref = 4565658604079112714 
n_req = 102605 
total_req = 105467 

Dual Bus Interface Util: 
issued_total_row = 25326 
issued_total_col = 105467 
Row_Bus_Util =  0.035643 
CoL_Bus_Util = 0.148431 
Either_Row_CoL_Bus_Util = 0.181786 
Issued_on_Two_Bus_Simul_Util = 0.002287 
issued_two_Eff = 0.012581 
queue_avg = 5.779680 


dram_util_bins: 0 0 0 0 0 0 0 0 0 0
dram_eff_bins: 0 0 0 0 0 0 0 0 0 0
mrqq: max=64 avg=5.77968
Memory Partition 5: 
Cache L2_bank_010:
MSHR contents

Cache L2_bank_011:
MSHR contents

In Dram Latency Queue (total = 0): 
DRAM[5]: 16 bks, busW=4 BL=8 CL=12, tRRD=6 tCCD=2, tRCD=12 tRAS=28 tRP=12 tRC=40
n_cmd=710548 n_nop=580754 n_act=12557 n_pre=12541 n_ref_event=0 n_req=103465 n_rd=97042 n_rd_L2_A=0 n_write=0 n_wr_bk=9281 bw_util=0.2993
n_activity=403775 dram_eff=0.5266
bk0: 6983a 628385i bk1: 7107a 627375i bk2: 6252a 637760i bk3: 6150a 635083i bk4: 6605a 624613i bk5: 6590a 628191i bk6: 6255a 621236i bk7: 6204a 624922i bk8: 5932a 656029i bk9: 6060a 656071i bk10: 5036a 671514i bk11: 5224a 671804i bk12: 5944a 662507i bk13: 5816a 658164i bk14: 5404a 646177i bk15: 5480a 645457i 

------------------------------------------------------------------------

Row_Buffer_Locality = 0.878722
Row_Buffer_Locality_read = 0.908813
Row_Buffer_Locality_write = 0.424101
Bank_Level_Parallism = 3.259635
Bank_Level_Parallism_Col = 0.000000
Bank_Level_Parallism_Ready = 1.654226
write_to_read_ratio_blp_rw_average = 0.000000
GrpLevelPara = 0.000000 

BW Util details:
bwutil = 0.299270 
total_CMD = 710548 
util_bw = 212646 
Wasted_Col = 112318 
Wasted_Row = 36431 
Idle = 349153 

BW Util Bottlenecks: 
RCDc_limit = 55907 
RCDWRc_limit = 11610 
WTRc_limit = 20359 
RTWc_limit = 79892 
CCDLc_limit = 61475 
rwq = 0 
CCDLc_limit_alone = 47522 
WTRc_limit_alone = 19320 
RTWc_limit_alone = 66978 

Commands details: 
total_CMD = 710548 
n_nop = 580754 
Read = 97042 
Write = 0 
L2_Alloc = 0 
L2_WB = 9281 
n_act = 12557 
n_pre = 12541 
n_ref = 0 
n_req = 103465 
total_req = 106323 

Dual Bus Interface Util: 
issued_total_row = 25098 
issued_total_col = 106323 
Row_Bus_Util =  0.035322 
CoL_Bus_Util = 0.149635 
Either_Row_CoL_Bus_Util = 0.182667 
Issued_on_Two_Bus_Simul_Util = 0.002290 
issued_two_Eff = 0.012535 
queue_avg = 5.973332 


dram_util_bins: 0 0 0 0 0 0 0 0 0 0
dram_eff_bins: 0 0 0 0 0 0 0 0 0 0
mrqq: max=64 avg=5.97333

========= L2 cache stats =========
L2_cache_bank[0]: Access = 259839, Miss = 70132, Miss_rate = 0.270, Pending_hits = 87, Reservation_fails = 289
L2_cache_bank[1]: Access = 257285, Miss = 63064, Miss_rate = 0.245, Pending_hits = 57, Reservation_fails = 49
L2_cache_bank[2]: Access = 251127, Miss = 62626, Miss_rate = 0.249, Pending_hits = 52, Reservation_fails = 167
L2_cache_bank[3]: Access = 257354, Miss = 62266, Miss_rate = 0.242, Pending_hits = 47, Reservation_fails = 37
L2_cache_bank[4]: Access = 252225, Miss = 62797, Miss_rate = 0.249, Pending_hits = 56, Reservation_fails = 235
L2_cache_bank[5]: Access = 251608, Miss = 63531, Miss_rate = 0.252, Pending_hits = 35, Reservation_fails = 42
L2_cache_bank[6]: Access = 252361, Miss = 62217, Miss_rate = 0.247, Pending_hits = 55, Reservation_fails = 42
L2_cache_bank[7]: Access = 251220, Miss = 62656, Miss_rate = 0.249, Pending_hits = 35, Reservation_fails = 41
L2_cache_bank[8]: Access = 255897, Miss = 62971, Miss_rate = 0.246, Pending_hits = 27, Reservation_fails = 31
L2_cache_bank[9]: Access = 249846, Miss = 61709, Miss_rate = 0.247, Pending_hits = 29, Reservation_fails = 45
L2_cache_bank[10]: Access = 255323, Miss = 62700, Miss_rate = 0.246, Pending_hits = 51, Reservation_fails = 41
L2_cache_bank[11]: Access = 252386, Miss = 62921, Miss_rate = 0.249, Pending_hits = 38, Reservation_fails = 58
L2_total_cache_accesses = 3046471
L2_total_cache_misses = 759590
L2_total_cache_miss_rate = 0.2493
L2_total_cache_pending_hits = 569
L2_total_cache_reservation_fails = 1077
L2_total_cache_breakdown:
	L2_cache_stats_breakdown[GLOBAL_ACC_R][HIT] = 2168919
	L2_cache_stats_breakdown[GLOBAL_ACC_R][HIT_RESERVED] = 250
	L2_cache_stats_breakdown[GLOBAL_ACC_R][MISS] = 139203
	L2_cache_stats_breakdown[GLOBAL_ACC_R][RESERVATION_FAIL] = 542
	L2_cache_stats_breakdown[GLOBAL_ACC_R][SECTOR_MISS] = 442272
	L2_cache_stats_breakdown[LOCAL_ACC_R][HIT] = 0
	L2_cache_stats_breakdown[LOCAL_ACC_R][HIT_RESERVED] = 0
	L2_cache_stats_breakdown[LOCAL_ACC_R][MISS] = 0
	L2_cache_stats_breakdown[LOCAL_ACC_R][RESERVATION_FAIL] = 0
	L2_cache_stats_breakdown[LOCAL_ACC_R][SECTOR_MISS] = 0
	L2_cache_stats_breakdown[CONST_ACC_R][HIT] = 22
	L2_cache_stats_breakdown[CONST_ACC_R][HIT_RESERVED] = 6
	L2_cache_stats_breakdown[CONST_ACC_R][MISS] = 1
	L2_cache_stats_breakdown[CONST_ACC_R][RESERVATION_FAIL] = 115
	L2_cache_stats_breakdown[CONST_ACC_R][SECTOR_MISS] = 1
	L2_cache_stats_breakdown[TEXTURE_ACC_R][HIT] = 0
	L2_cache_stats_breakdown[TEXTURE_ACC_R][HIT_RESERVED] = 0
	L2_cache_stats_breakdown[TEXTURE_ACC_R][MISS] = 0
	L2_cache_stats_breakdown[TEXTURE_ACC_R][RESERVATION_FAIL] = 0
	L2_cache_stats_breakdown[TEXTURE_ACC_R][SECTOR_MISS] = 0
	L2_cache_stats_breakdown[GLOBAL_ACC_W][HIT] = 117095
	L2_cache_stats_breakdown[GLOBAL_ACC_W][HIT_RESERVED] = 253
	L2_cache_stats_breakdown[GLOBAL_ACC_W][MISS] = 30828
	L2_cache_stats_breakdown[GLOBAL_ACC_W][RESERVATION_FAIL] = 0
	L2_cache_stats_breakdown[GLOBAL_ACC_W][SECTOR_MISS] = 147261
	L2_cache_stats_breakdown[LOCAL_ACC_W][HIT] = 0
	L2_cache_stats_breakdown[LOCAL_ACC_W][HIT_RESERVED] = 0
	L2_cache_stats_breakdown[LOCAL_ACC_W][MISS] = 0
	L2_cache_stats_breakdown[LOCAL_ACC_W][RESERVATION_FAIL] = 0
	L2_cache_stats_breakdown[LOCAL_ACC_W][SECTOR_MISS] = 0
	L2_cache_stats_breakdown[L1_WRBK_ACC][HIT] = 0
	L2_cache_stats_breakdown[L1_WRBK_ACC][HIT_RESERVED] = 0
	L2_cache_stats_breakdown[L1_WRBK_ACC][MISS] = 0
	L2_cache_stats_breakdown[L1_WRBK_ACC][RESERVATION_FAIL] = 0
	L2_cache_stats_breakdown[L1_WRBK_ACC][SECTOR_MISS] = 0
	L2_cache_stats_breakdown[L2_WRBK_ACC][HIT] = 0
	L2_cache_stats_breakdown[L2_WRBK_ACC][HIT_RESERVED] = 0
	L2_cache_stats_breakdown[L2_WRBK_ACC][MISS] = 0
	L2_cache_stats_breakdown[L2_WRBK_ACC][RESERVATION_FAIL] = 0
	L2_cache_stats_breakdown[L2_WRBK_ACC][SECTOR_MISS] = 0
	L2_cache_stats_breakdown[INST_ACC_R][HIT] = 276
	L2_cache_stats_breakdown[INST_ACC_R][HIT_RESERVED] = 60
	L2_cache_stats_breakdown[INST_ACC_R][MISS] = 6
	L2_cache_stats_breakdown[INST_ACC_R][RESERVATION_FAIL] = 420
	L2_cache_stats_breakdown[INST_ACC_R][SECTOR_MISS] = 18
	L2_cache_stats_breakdown[L1_WR_ALLOC_R][HIT] = 0
	L2_cache_stats_breakdown[L1_WR_ALLOC_R][HIT_RESERVED] = 0
	L2_cache_stats_breakdown[L1_WR_ALLOC_R][MISS] = 0
	L2_cache_stats_breakdown[L1_WR_ALLOC_R][RESERVATION_FAIL] = 0
	L2_cache_stats_breakdown[L1_WR_ALLOC_R][SECTOR_MISS] = 0
	L2_cache_stats_breakdown[L2_WR_ALLOC_R][HIT] = 0
	L2_cache_stats_breakdown[L2_WR_ALLOC_R][HIT_RESERVED] = 0
	L2_cache_stats_breakdown[L2_WR_ALLOC_R][MISS] = 0
	L2_cache_stats_breakdown[L2_WR_ALLOC_R][RESERVATION_FAIL] = 0
	L2_cache_stats_breakdown[L2_WR_ALLOC_R][SECTOR_MISS] = 0
	L2_cache_stats_breakdown[GLOBAL_ACC_R][TOTAL_ACCESS] = 2750644
	L2_cache_stats_breakdown[CONST_ACC_R][TOTAL_ACCESS] = 30
	L2_cache_stats_breakdown[GLOBAL_ACC_W][TOTAL_ACCESS] = 295437
	L2_cache_stats_breakdown[INST_ACC_R][TOTAL_ACCESS] = 360
L2_total_cache_reservation_fail_breakdown:
	L2_cache_stats_fail_breakdown[GLOBAL_ACC_R][MISS_QUEUE_FULL] = 542
	L2_cache_stats_fail_breakdown[CONST_ACC_R][MSHR_MERGE_ENRTY_FAIL] = 115
	L2_cache_stats_fail_breakdown[INST_ACC_R][MSHR_MERGE_ENRTY_FAIL] = 420
L2_cache_data_port_util = 0.356
L2_cache_fill_port_util = 0.090

icnt_total_pkts_mem_to_simt=3046471
icnt_total_pkts_simt_to_mem=983203
LD_mem_lat_dist  0 0 0 0 0 0 0 0 0 0 0 0 0 0 0 0 0 0 0 0 0 0 0 0 0 0 0
ST_mem_lat_dist  0 0 0 0 0 0 0 0 0 0 0 0 0 0 0 0 0 0 0 0 0 0 0 0 0 0 0
----------------------------Interconnect-DETAILS--------------------------------
Class 0:
Packet latency average = 6.53672
	minimum = 5
	maximum = 26
Network latency average = 6.53672
	minimum = 5
	maximum = 26
Slowest packet = 4027798
Flit latency average = 6.53672
	minimum = 5
	maximum = 26
Slowest flit = 4027925
Fragmentation average = 0
	minimum = 0
	maximum = 0
Injected packet rate average = 0.0512513
	minimum = 0.0172973 (at node 0)
	maximum = 0.0951351 (at node 15)
Accepted packet rate average = 0.0512513
	minimum = 0.0227027 (at node 16)
	maximum = 0.0778378 (at node 1)
Injected flit rate average = 0.0512513
	minimum = 0.0172973 (at node 0)
	maximum = 0.0951351 (at node 15)
Accepted flit rate average= 0.0512513
	minimum = 0.0227027 (at node 16)
	maximum = 0.0778378 (at node 1)
Injected packet length average = 1
Accepted packet length average = 1
Total in-flight flits = 0 (0 measured)
====== Overall Traffic Statistics ======
====== Traffic class 0 ======
Packet latency average = 28.6696 (20 samples)
	minimum = 5 (20 samples)
	maximum = 200.1 (20 samples)
Network latency average = 27.0823 (20 samples)
	minimum = 5 (20 samples)
	maximum = 197.55 (20 samples)
Flit latency average = 27.0821 (20 samples)
	minimum = 5 (20 samples)
	maximum = 197.55 (20 samples)
Fragmentation average = 1.79866e-05 (20 samples)
	minimum = 0 (20 samples)
	maximum = 24 (20 samples)
Injected packet rate average = 0.123072 (20 samples)
	minimum = 0.0573214 (20 samples)
	maximum = 0.305984 (20 samples)
Accepted packet rate average = 0.123072 (20 samples)
	minimum = 0.0736709 (20 samples)
	maximum = 0.270703 (20 samples)
Injected flit rate average = 0.123073 (20 samples)
	minimum = 0.057323 (20 samples)
	maximum = 0.305984 (20 samples)
Accepted flit rate average = 0.123073 (20 samples)
	minimum = 0.0736744 (20 samples)
	maximum = 0.270703 (20 samples)
Injected packet size average = 1.00001 (20 samples)
Accepted packet size average = 1.00001 (20 samples)
Hops average = 1 (20 samples)
----------------------------END-of-Interconnect-DETAILS-------------------------


gpgpu_simulation_time = 0 days, 0 hrs, 2 min, 17 sec (137 sec)
gpgpu_simulation_rate = 224553 (inst/sec)
gpgpu_simulation_rate = 3929 (cycle/sec)
gpgpu_silicon_slowdown = 178162x
Kernel Executed 10 times
Result stored in result.txt
GPGPU-Sim: *** exit detected ***
