

        *** GPGPU-Sim Simulator Version 4.0.0  [build gpgpu-sim_git-commit-90ec3399763d7c8512cfe7dc193473086c38ca38_modified_0.0] ***


GPGPU-Sim PTX: simulation mode 0 (can change with PTX_SIM_MODE_FUNC environment variable:
               1=functional simulation only, 0=detailed performance simulator)
GPGPU-Sim PTX: overriding embedded ptx with ptx file (PTX_SIM_USE_PTX_FILE is set)
GPGPU-Sim: Configuration options:

-save_embedded_ptx                      0 # saves ptx files embedded in binary as <n>.ptx
-keep                                   0 # keep intermediate files created by GPGPU-Sim when interfacing with external programs
-gpgpu_ptx_save_converted_ptxplus                    0 # Saved converted ptxplus to a file
-gpgpu_occupancy_sm_number                   62 # The SM number to pass to ptxas when getting register usage for computing GPU occupancy. This parameter is required in the config.
-ptx_opcode_latency_int      4,13,4,5,145,32 # Opcode latencies for integers <ADD,MAX,MUL,MAD,DIV,SHFL>Default 1,1,19,25,145,32
-ptx_opcode_latency_fp          4,13,4,4,39 # Opcode latencies for single precision floating points <ADD,MAX,MUL,MAD,DIV>Default 1,1,1,1,30
-ptx_opcode_latency_dp         8,19,8,8,330 # Opcode latencies for double precision floating points <ADD,MAX,MUL,MAD,DIV>Default 8,8,8,8,335
-ptx_opcode_latency_sfu                   20 # Opcode latencies for SFU instructionsDefault 8
-ptx_opcode_latency_tesnor                   64 # Opcode latencies for Tensor instructionsDefault 64
-ptx_opcode_initiation_int          1,1,1,1,4,4 # Opcode initiation intervals for integers <ADD,MAX,MUL,MAD,DIV,SHFL>Default 1,1,4,4,32,4
-ptx_opcode_initiation_fp            1,2,1,1,4 # Opcode initiation intervals for single precision floating points <ADD,MAX,MUL,MAD,DIV>Default 1,1,1,1,5
-ptx_opcode_initiation_dp          8,8,8,8,130 # Opcode initiation intervals for double precision floating points <ADD,MAX,MUL,MAD,DIV>Default 8,8,8,8,130
-ptx_opcode_initiation_sfu                    4 # Opcode initiation intervals for sfu instructionsDefault 8
-ptx_opcode_initiation_tensor                   64 # Opcode initiation intervals for tensor instructionsDefault 64
-cdp_latency         7200,8000,100,12000,1600 # CDP API latency <cudaStreamCreateWithFlags, cudaGetParameterBufferV2_init_perWarp, cudaGetParameterBufferV2_perKernel, cudaLaunchDeviceV2_init_perWarp, cudaLaunchDevicV2_perKernel>Default 7200,8000,100,12000,1600
-network_mode                           1 # Interconnection network mode
-inter_config_file   config_pascal_islip.icnt # Interconnection network config file
-icnt_in_buffer_limit                   64 # in_buffer_limit
-icnt_out_buffer_limit                   64 # out_buffer_limit
-icnt_subnets                           2 # subnets
-icnt_arbiter_algo                      1 # arbiter_algo
-icnt_verbose                           0 # inct_verbose
-icnt_grant_cycles                      1 # grant_cycles
-gpgpu_ptx_use_cuobjdump                    1 # Use cuobjdump to extract ptx and sass from binaries
-gpgpu_experimental_lib_support                    0 # Try to extract code from cuda libraries [Broken because of unknown cudaGetExportTable]
-checkpoint_option                      0 #  checkpointing flag (0 = no checkpoint)
-checkpoint_kernel                      1 #  checkpointing during execution of which kernel (1- 1st kernel)
-checkpoint_CTA                         0 #  checkpointing after # of CTA (< less than total CTA)
-resume_option                          0 #  resume flag (0 = no resume)
-resume_kernel                          0 #  Resume from which kernel (1= 1st kernel)
-resume_CTA                             0 #  resume from which CTA 
-checkpoint_CTA_t                       0 #  resume from which CTA 
-checkpoint_insn_Y                      0 #  resume from which CTA 
-gpgpu_ptx_convert_to_ptxplus                    0 # Convert SASS (native ISA) to ptxplus and run ptxplus
-gpgpu_ptx_force_max_capability                   61 # Force maximum compute capability
-gpgpu_ptx_inst_debug_to_file                    0 # Dump executed instructions' debug information to file
-gpgpu_ptx_inst_debug_file       inst_debug.txt # Executed instructions' debug output file
-gpgpu_ptx_inst_debug_thread_uid                    1 # Thread UID for executed instructions' debug output
-gpgpu_simd_model                       1 # 1 = post-dominator
-gpgpu_shader_core_pipeline              2048:32 # shader core pipeline config, i.e., {<nthread>:<warpsize>}
-gpgpu_tex_cache:l1  N:16:128:24,L:R:m:N:L,T:128:4,128:2 # per-shader L1 texture cache  (READ-ONLY) config  {<nsets>:<bsize>:<assoc>,<rep>:<wr>:<alloc>:<wr_alloc>,<mshr>:<N>:<merge>,<mq>:<rf>}
-gpgpu_const_cache:l1 N:128:64:2,L:R:f:N:L,S:2:64,4 # per-shader L1 constant memory cache  (READ-ONLY) config  {<nsets>:<bsize>:<assoc>,<rep>:<wr>:<alloc>:<wr_alloc>,<mshr>:<N>:<merge>,<mq>} 
-gpgpu_cache:il1     N:8:128:4,L:R:f:N:L,S:2:48,4 # shader L1 instruction cache config  {<nsets>:<bsize>:<assoc>,<rep>:<wr>:<alloc>:<wr_alloc>,<mshr>:<N>:<merge>,<mq>} 
-gpgpu_cache:dl1     S:4:128:96,L:L:s:N:L,A:256:8,16:0,32 # per-shader L1 data cache config  {<nsets>:<bsize>:<assoc>,<rep>:<wr>:<alloc>:<wr_alloc>,<mshr>:<N>:<merge>,<mq> | none}
-gpgpu_l1_banks                         2 # The number of L1 cache banks
-gpgpu_l1_banks_byte_interleaving                   32 # l1 banks byte interleaving granularity
-gpgpu_l1_banks_hashing_function                    0 # l1 banks hashing function
-gpgpu_l1_latency                      82 # L1 Hit Latency
-gpgpu_smem_latency                    24 # smem Latency
-gpgpu_cache:dl1PrefL1 S:4:128:96,L:L:s:N:L,A:256:8,16:0,32 # per-shader L1 data cache config  {<nsets>:<bsize>:<assoc>,<rep>:<wr>:<alloc>:<wr_alloc>,<mshr>:<N>:<merge>,<mq> | none}
-gpgpu_cache:dl1PrefShared S:4:128:96,L:L:s:N:L,A:256:8,16:0,32 # per-shader L1 data cache config  {<nsets>:<bsize>:<assoc>,<rep>:<wr>:<alloc>:<wr_alloc>,<mshr>:<N>:<merge>,<mq> | none}
-gpgpu_gmem_skip_L1D                    1 # global memory access skip L1D cache (implements -Xptxas -dlcm=cg, default=no skip)
-gpgpu_perfect_mem                      0 # enable perfect memory mode (no cache miss)
-n_regfile_gating_group                    4 # group of lanes that should be read/written together)
-gpgpu_clock_gated_reg_file                    0 # enable clock gated reg file for power calculations
-gpgpu_clock_gated_lanes                    0 # enable clock gated lanes for power calculations
-gpgpu_shader_registers                65536 # Number of registers per shader core. Limits number of concurrent CTAs. (default 8192)
-gpgpu_registers_per_block                 8192 # Maximum number of registers per CTA. (default 8192)
-gpgpu_ignore_resources_limitation                    1 # gpgpu_ignore_resources_limitation (default 0)
-gpgpu_shader_cta                      32 # Maximum number of concurrent CTAs in shader (default 8)
-gpgpu_num_cta_barriers                   16 # Maximum number of named barriers per CTA (default 16)
-gpgpu_n_clusters                      28 # number of processing clusters
-gpgpu_n_cores_per_cluster                    1 # number of simd cores per cluster
-gpgpu_n_cluster_ejection_buffer_size                   32 # number of packets in ejection buffer
-gpgpu_n_ldst_response_buffer_size                    2 # number of response packets in ld/st unit ejection buffer
-gpgpu_shmem_per_block                49152 # Size of shared memory per thread block or CTA (default 48kB)
-gpgpu_shmem_size                   98304 # Size of shared memory per shader core (default 16kB)
-gpgpu_adaptive_cache_config                    0 # adaptive_cache_config
-gpgpu_shmem_sizeDefault                98304 # Size of shared memory per shader core (default 16kB)
-gpgpu_shmem_size_PrefL1                98304 # Size of shared memory per shader core (default 16kB)
-gpgpu_shmem_size_PrefShared                98304 # Size of shared memory per shader core (default 16kB)
-gpgpu_shmem_num_banks                   32 # Number of banks in the shared memory in each shader core (default 16)
-gpgpu_shmem_limited_broadcast                    0 # Limit shared memory to do one broadcast per cycle (default on)
-gpgpu_shmem_warp_parts                    1 # Number of portions a warp is divided into for shared memory bank conflict check 
-gpgpu_mem_unit_ports                    1 # The number of memory transactions allowed per core cycle
-gpgpu_shmem_warp_parts                    1 # Number of portions a warp is divided into for shared memory bank conflict check 
-gpgpu_warpdistro_shader                   -1 # Specify which shader core to collect the warp size distribution from
-gpgpu_warp_issue_shader                    0 # Specify which shader core to collect the warp issue distribution from
-gpgpu_local_mem_map                    1 # Mapping from local memory space address to simulated GPU physical address space (default = enabled)
-gpgpu_num_reg_banks                   16 # Number of register banks (default = 8)
-gpgpu_reg_bank_use_warp_id                    0 # Use warp ID in mapping registers to banks (default = off)
-gpgpu_sub_core_model                    1 # Sub Core Volta/Pascal model (default = off)
-gpgpu_enable_specialized_operand_collector                    0 # enable_specialized_operand_collector
-gpgpu_operand_collector_num_units_sp                    4 # number of collector units (default = 4)
-gpgpu_operand_collector_num_units_dp                    0 # number of collector units (default = 0)
-gpgpu_operand_collector_num_units_sfu                    4 # number of collector units (default = 4)
-gpgpu_operand_collector_num_units_int                    0 # number of collector units (default = 0)
-gpgpu_operand_collector_num_units_tensor_core                    4 # number of collector units (default = 4)
-gpgpu_operand_collector_num_units_mem                    2 # number of collector units (default = 2)
-gpgpu_operand_collector_num_units_gen                    8 # number of collector units (default = 0)
-gpgpu_operand_collector_num_in_ports_sp                    1 # number of collector unit in ports (default = 1)
-gpgpu_operand_collector_num_in_ports_dp                    0 # number of collector unit in ports (default = 0)
-gpgpu_operand_collector_num_in_ports_sfu                    1 # number of collector unit in ports (default = 1)
-gpgpu_operand_collector_num_in_ports_int                    0 # number of collector unit in ports (default = 0)
-gpgpu_operand_collector_num_in_ports_tensor_core                    1 # number of collector unit in ports (default = 1)
-gpgpu_operand_collector_num_in_ports_mem                    1 # number of collector unit in ports (default = 1)
-gpgpu_operand_collector_num_in_ports_gen                    8 # number of collector unit in ports (default = 0)
-gpgpu_operand_collector_num_out_ports_sp                    1 # number of collector unit in ports (default = 1)
-gpgpu_operand_collector_num_out_ports_dp                    0 # number of collector unit in ports (default = 0)
-gpgpu_operand_collector_num_out_ports_sfu                    1 # number of collector unit in ports (default = 1)
-gpgpu_operand_collector_num_out_ports_int                    0 # number of collector unit in ports (default = 0)
-gpgpu_operand_collector_num_out_ports_tensor_core                    1 # number of collector unit in ports (default = 1)
-gpgpu_operand_collector_num_out_ports_mem                    1 # number of collector unit in ports (default = 1)
-gpgpu_operand_collector_num_out_ports_gen                    8 # number of collector unit in ports (default = 0)
-gpgpu_coalesce_arch                   61 # Coalescing arch (GT200 = 13, Fermi = 20)
-gpgpu_num_sched_per_core                    4 # Number of warp schedulers per core
-gpgpu_max_insn_issue_per_warp                    2 # Max number of instructions that can be issued per warp in one cycle by scheduler (either 1 or 2)
-gpgpu_dual_issue_diff_exec_units                    1 # should dual issue use two different execution unit resources (Default = 1)
-gpgpu_simt_core_sim_order                    1 # Select the simulation order of cores in a cluster (0=Fix, 1=Round-Robin)
-gpgpu_pipeline_widths 4,0,0,4,4,4,0,0,4,4,8 # Pipeline widths ID_OC_SP,ID_OC_DP,ID_OC_INT,ID_OC_SFU,ID_OC_MEM,OC_EX_SP,OC_EX_DP,OC_EX_INT,OC_EX_SFU,OC_EX_MEM,EX_WB,ID_OC_TENSOR_CORE,OC_EX_TENSOR_CORE
-gpgpu_tensor_core_avail                    0 # Tensor Core Available (default=0)
-gpgpu_num_sp_units                     4 # Number of SP units (default=1)
-gpgpu_num_dp_units                     0 # Number of DP units (default=0)
-gpgpu_num_int_units                    0 # Number of INT units (default=0)
-gpgpu_num_sfu_units                    4 # Number of SF units (default=1)
-gpgpu_num_tensor_core_units                    0 # Number of tensor_core units (default=1)
-gpgpu_num_mem_units                    1 # Number if ldst units (default=1) WARNING: not hooked up to anything
-gpgpu_scheduler                      lrr # Scheduler configuration: < lrr | gto | two_level_active > If two_level_active:<num_active_warps>:<inner_prioritization>:<outer_prioritization>For complete list of prioritization values see shader.h enum scheduler_prioritization_typeDefault: gto
-gpgpu_concurrent_kernel_sm                    0 # Support concurrent kernels on a SM (default = disabled)
-gpgpu_perfect_inst_const_cache                    1 # perfect inst and const cache mode, so all inst and const hits in the cache(default = disabled)
-gpgpu_inst_fetch_throughput                    8 # the number of fetched intruction per warp each cycle
-gpgpu_reg_file_port_throughput                    2 # the number ports of the register file
-specialized_unit_1         0,4,4,4,4,BRA # specialized unit config {<enabled>,<num_units>:<latency>:<initiation>,<ID_OC_SPEC>:<OC_EX_SPEC>,<NAME>}
-specialized_unit_2         0,4,4,4,4,BRA # specialized unit config {<enabled>,<num_units>:<latency>:<initiation>,<ID_OC_SPEC>:<OC_EX_SPEC>,<NAME>}
-specialized_unit_3         0,4,4,4,4,BRA # specialized unit config {<enabled>,<num_units>:<latency>:<initiation>,<ID_OC_SPEC>:<OC_EX_SPEC>,<NAME>}
-specialized_unit_4         0,4,4,4,4,BRA # specialized unit config {<enabled>,<num_units>:<latency>:<initiation>,<ID_OC_SPEC>:<OC_EX_SPEC>,<NAME>}
-specialized_unit_5         0,4,4,4,4,BRA # specialized unit config {<enabled>,<num_units>:<latency>:<initiation>,<ID_OC_SPEC>:<OC_EX_SPEC>,<NAME>}
-specialized_unit_6         0,4,4,4,4,BRA # specialized unit config {<enabled>,<num_units>:<latency>:<initiation>,<ID_OC_SPEC>:<OC_EX_SPEC>,<NAME>}
-specialized_unit_7         0,4,4,4,4,BRA # specialized unit config {<enabled>,<num_units>:<latency>:<initiation>,<ID_OC_SPEC>:<OC_EX_SPEC>,<NAME>}
-specialized_unit_8         0,4,4,4,4,BRA # specialized unit config {<enabled>,<num_units>:<latency>:<initiation>,<ID_OC_SPEC>:<OC_EX_SPEC>,<NAME>}
-gpgpu_perf_sim_memcpy                    1 # Fill the L2 cache on memcpy
-gpgpu_simple_dram_model                    0 # simple_dram_model with fixed latency and BW
-gpgpu_dram_scheduler                    1 # 0 = fifo, 1 = FR-FCFS (defaul)
-gpgpu_dram_partition_queues          32:32:32:32 # i2$:$2d:d2$:$2i
-l2_ideal                               0 # Use a ideal L2 cache that always hit
-gpgpu_cache:dl2     S:64:128:16,L:B:m:L:P,A:256:64,16:0,32 # unified banked L2 data cache config  {<nsets>:<bsize>:<assoc>,<rep>:<wr>:<alloc>:<wr_alloc>,<mshr>:<N>:<merge>,<mq>}
-gpgpu_cache:dl2_texture_only                    0 # L2 cache used for texture only
-gpgpu_n_mem                           12 # number of memory modules (e.g. memory controllers) in gpu
-gpgpu_n_sub_partition_per_mchannel                    2 # number of memory subpartition in each memory module
-gpgpu_n_mem_per_ctrlr                    1 # number of memory chips per memory controller
-gpgpu_memlatency_stat                   14 # track and display latency statistics 0x2 enables MC, 0x4 enables queue logs
-gpgpu_frfcfs_dram_sched_queue_size                   64 # 0 = unlimited (default); # entries per chip
-gpgpu_dram_return_queue_size                   64 # 0 = unlimited (default); # entries per chip
-gpgpu_dram_buswidth                    4 # default = 4 bytes (8 bytes per cycle at DDR)
-gpgpu_dram_burst_length                    8 # Burst length of each DRAM request (default = 4 data bus cycle)
-dram_data_command_freq_ratio                    4 # Frequency ratio between DRAM data bus and command bus (default = 2 times, i.e. DDR)
-gpgpu_dram_timing_opt nbk=16:CCD=2:RRD=8:RCD=16:RAS=37:RP=16:RC=52: CL=16:WL=6:CDLR=7:WR=16:nbkgrp=4:CCDL=4:RTPL=3 # DRAM timing parameters = {nbk:tCCD:tRRD:tRCD:tRAS:tRP:tRC:CL:WL:tCDLR:tWR:nbkgrp:tCCDL:tRTPL}
-gpgpu_l2_rop_latency                  120 # ROP queue latency (default 85)
-dram_latency                         100 # DRAM latency (default 30)
-dram_dual_bus_interface                    0 # dual_bus_interface (default = 0) 
-dram_bnk_indexing_policy                    0 # dram_bnk_indexing_policy (0 = normal indexing, 1 = Xoring with the higher bits) (Default = 0)
-dram_bnkgrp_indexing_policy                    1 # dram_bnkgrp_indexing_policy (0 = take higher bits, 1 = take lower bits) (Default = 0)
-dram_seperate_write_queue_enable                    0 # Seperate_Write_Queue_Enable
-dram_write_queue_size             32:28:16 # Write_Queue_Size
-dram_elimnate_rw_turnaround                    0 # elimnate_rw_turnaround i.e set tWTR and tRTW = 0
-icnt_flit_size                        40 # icnt_flit_size
-gpgpu_mem_addr_mapping dramid@8;00000000.00000000.00000000.00000000.0000RRRR.RRRRRRRR.RBBBCCCC.BCCSSSSS # mapping memory address to dram model {dramid@<start bit>;<memory address map>}
-gpgpu_mem_addr_test                    0 # run sweep test to check address mapping for aliased address
-gpgpu_mem_address_mask                    1 # 0 = old addressing mask, 1 = new addressing mask, 2 = new add. mask + flipped bank sel and chip sel bits
-gpgpu_memory_partition_indexing                    4 # 0 = no indexing, 1 = bitwise xoring, 2 = IPoly, 3 = custom indexing
-gpuwattch_xml_file         gpuwattch.xml # GPUWattch XML file
-power_simulation_enabled                    1 # Turn on power simulator (1=On, 0=Off)
-power_per_cycle_dump                    0 # Dump detailed power output each cycle
-power_trace_enabled                    0 # produce a file for the power trace (1=On, 0=Off)
-power_trace_zlevel                     6 # Compression level of the power trace output log (0=no comp, 9=highest)
-steady_power_levels_enabled                    0 # produce a file for the steady power levels (1=On, 0=Off)
-steady_state_definition                  8:4 # allowed deviation:number of samples
-gpgpu_max_cycle                        0 # terminates gpu simulation early (0 = no limit)
-gpgpu_max_insn                         0 # terminates gpu simulation early (0 = no limit)
-gpgpu_max_cta                          0 # terminates gpu simulation early (0 = no limit)
-gpgpu_max_completed_cta                    0 # terminates gpu simulation early (0 = no limit)
-gpgpu_runtime_stat                   500 # display runtime statistics such as dram utilization {<freq>:<flag>}
-liveness_message_freq                    1 # Minimum number of seconds between simulation liveness messages (0 = always print)
-gpgpu_compute_capability_major                    6 # Major compute capability version number
-gpgpu_compute_capability_minor                    1 # Minor compute capability version number
-gpgpu_flush_l1_cache                    1 # Flush L1 cache at the end of each kernel call
-gpgpu_flush_l2_cache                    0 # Flush L2 cache at the end of each kernel call
-gpgpu_deadlock_detect                    1 # Stop the simulation at deadlock (1=on (default), 0=off)
-gpgpu_ptx_instruction_classification                    0 # if enabled will classify ptx instruction types per kernel (Max 255 kernels now)
-gpgpu_ptx_sim_mode                     0 # Select between Performance (default) or Functional simulation (1)
-gpgpu_clock_domains 1417.0:1417.0:1417.0:2500.0 # Clock Domain Frequencies in MhZ {<Core Clock>:<ICNT Clock>:<L2 Clock>:<DRAM Clock>}
-gpgpu_max_concurrent_kernel                    8 # maximum kernels that can run concurrently on GPU
-gpgpu_cflog_interval                    0 # Interval between each snapshot in control flow logger
-visualizer_enabled                     0 # Turn on visualizer output (1=On, 0=Off)
-visualizer_outputfile                 NULL # Specifies the output log file for visualizer
-visualizer_zlevel                      6 # Compression level of the visualizer output log (0=no comp, 9=highest)
-gpgpu_stack_size_limit                 1024 # GPU thread stack size
-gpgpu_heap_size_limit              8388608 # GPU malloc heap size 
-gpgpu_runtime_sync_depth_limit                    2 # GPU device runtime synchronize depth
-gpgpu_runtime_pending_launch_count_limit                 2048 # GPU device runtime pending launch count
-trace_enabled                          0 # Turn on traces
-trace_components                    none # comma seperated list of traces to enable. Complete list found in trace_streams.tup. Default none
-trace_sampling_core                    0 # The core which is printed using CORE_DPRINTF. Default 0
-trace_sampling_memory_partition                   -1 # The memory partition which is printed using MEMPART_DPRINTF. Default -1 (i.e. all)
-enable_ptx_file_line_stats                    1 # Turn on PTX source line statistic profiling. (1 = On)
-ptx_line_stats_filename gpgpu_inst_stats.txt # Output file for PTX source line statistics.
-gpgpu_kernel_launch_latency                 5000 # Kernel launch latency in cycles. Default: 0
-gpgpu_cdp_enabled                      0 # Turn on CDP
-gpgpu_TB_launch_latency                    0 # thread block launch latency in cycles. Default: 0
DRAM Timing Options:
nbk                                    16 # number of banks
CCD                                     2 # column to column delay
RRD                                     8 # minimal delay between activation of rows in different banks
RCD                                    16 # row to column delay
RAS                                    37 # time needed to activate row
RP                                     16 # time needed to precharge (deactivate) row
RC                                     52 # row cycle time
CDLR                                    7 # switching from write to read (changes tWTR)
WR                                     16 # last data-in to row precharge
CL                                     16 # CAS latency
WL                                      6 # Write latency
nbkgrp                                  4 # number of bank groups
CCDL                                    4 # column to column delay between accesses to different bank groups
RTPL                                    3 # read to precharge delay between accesses to different bank groups
Total number of memory sub partition = 24
addr_dec_mask[CHIP]  = 0000000000000000 	high:64 low:0
addr_dec_mask[BK]    = 0000000000007080 	high:15 low:7
addr_dec_mask[ROW]   = 000000000fff8000 	high:28 low:15
addr_dec_mask[COL]   = 0000000000000f7f 	high:12 low:0
addr_dec_mask[BURST] = 000000000000001f 	high:5 low:0
sub_partition_id_mask = 0000000000000080
GPGPU-Sim uArch: clock freqs: 1417000000.000000:1417000000.000000:1417000000.000000:2500000000.000000
GPGPU-Sim uArch: clock periods: 0.00000000070571630205:0.00000000070571630205:0.00000000070571630205:0.00000000040000000000
*** Initializing Memory Statistics ***
GPGPU-Sim uArch: interconnect node map (shaderID+MemID to icntID)
GPGPU-Sim uArch: Memory nodes ID start from index: 28
GPGPU-Sim uArch:    0   1   2   3   4   5   6
GPGPU-Sim uArch:    7   8   9  10  11  12  13
GPGPU-Sim uArch:   14  15  16  17  18  19  20
GPGPU-Sim uArch:   21  22  23  24  25  26  27
GPGPU-Sim uArch:   28  29  30  31  32  33  34
GPGPU-Sim uArch:   35  36  37  38  39  40  41
GPGPU-Sim uArch:   42  43  44  45  46  47  48
GPGPU-Sim uArch:   49  50  51
GPGPU-Sim uArch: interconnect node reverse map (icntID to shaderID+MemID)
GPGPU-Sim uArch: Memory nodes start from ID: 28
GPGPU-Sim uArch:    0   1   2   3   4   5   6
GPGPU-Sim uArch:    7   8   9  10  11  12  13
GPGPU-Sim uArch:   14  15  16  17  18  19  20
GPGPU-Sim uArch:   21  22  23  24  25  26  27
GPGPU-Sim uArch:   28  29  30  31  32  33  34
GPGPU-Sim uArch:   35  36  37  38  39  40  41
GPGPU-Sim uArch:   42  43  44  45  46  47  48
GPGPU-Sim uArch:   49  50  51
2cd6361c7e75d1fd901667bdc199ae0a  /home/ishan/COA/Lab4/gpu-rodinia/cuda/pathfinder/a.out
Extracting PTX file and ptxas options    1: a.1.sm_52.ptx -arch=sm_52
GPGPU-Sim uArch: performance model initialization complete.
self exe links to: /home/ishan/COA/Lab4/gpu-rodinia/cuda/pathfinder/a.out
self exe links to: /home/ishan/COA/Lab4/gpu-rodinia/cuda/pathfinder/a.out
11.0
GPGPU-Sim PTX: __cudaRegisterFatBinary, fat_cubin_handle = 1, filename=default
self exe links to: /home/ishan/COA/Lab4/gpu-rodinia/cuda/pathfinder/a.out
Running md5sum using "md5sum /home/ishan/COA/Lab4/gpu-rodinia/cuda/pathfinder/a.out "
self exe links to: /home/ishan/COA/Lab4/gpu-rodinia/cuda/pathfinder/a.out
Extracting specific PTX file named a.1.sm_52.ptx 
GPGPU-Sim PTX: __cudaRegisterFunction _Z14dynproc_kerneliPiS_S_iiii : hostFun 0x0x563f6dc05ba4, fat_cubin_handle = 1
GPGPU-Sim PTX: Parsing a.1.sm_52.ptx
GPGPU-Sim PTX: allocating shared region for "_ZZ14dynproc_kerneliPiS_S_iiiiE4prev" from 0x0 to 0x400 (shared memory space)
GPGPU-Sim PTX: allocating shared region for "_ZZ14dynproc_kerneliPiS_S_iiiiE6result" from 0x400 to 0x800 (shared memory space)
GPGPU-Sim PTX: instruction assembly for function '_Z14dynproc_kerneliPiS_S_iiii'...   done.
GPGPU-Sim PTX: finished parsing EMBEDDED .ptx file a.1.sm_52.ptx
GPGPU-Sim PTX: loading globals with explicit initializers... 
GPGPU-Sim PTX: finished loading globals (0 bytes total).
GPGPU-Sim PTX: loading constants with explicit initializers...  done.
GPGPU-Sim PTX: Loading PTXInfo from a.1.sm_52.ptx
GPGPU-Sim PTX: Kernel '_Z14dynproc_kerneliPiS_S_iiii' : regs=18, lmem=0, smem=2048, cmem=368
pyramidHeight: 20
gridSize: [10000]
border:[20]
blockSize: 256
blockGrid:[47]
targetBlock:[216]
GPGPU-Sim PTX: Setting up arguments for 4 bytes starting at 0x7fff45902b9c..
GPGPU-Sim PTX: Setting up arguments for 8 bytes starting at 0x7fff45902b90..
GPGPU-Sim PTX: Setting up arguments for 8 bytes starting at 0x7fff45902b88..
GPGPU-Sim PTX: Setting up arguments for 8 bytes starting at 0x7fff45902b80..
GPGPU-Sim PTX: Setting up arguments for 4 bytes starting at 0x7fff45902b98..
GPGPU-Sim PTX: Setting up arguments for 4 bytes starting at 0x7fff45902b7c..
GPGPU-Sim PTX: Setting up arguments for 4 bytes starting at 0x7fff45902c30..
GPGPU-Sim PTX: Setting up arguments for 4 bytes starting at 0x7fff45902c38..

GPGPU-Sim PTX: cudaLaunch for 0x0x563f6dc05ba4 (mode=performance simulation) on stream 0
GPGPU-Sim PTX: finding reconvergence points for '_Z14dynproc_kerneliPiS_S_iiii'...
GPGPU-Sim PTX: Finding dominators for '_Z14dynproc_kerneliPiS_S_iiii'...
GPGPU-Sim PTX: Finding immediate dominators for '_Z14dynproc_kerneliPiS_S_iiii'...
GPGPU-Sim PTX: Finding postdominators for '_Z14dynproc_kerneliPiS_S_iiii'...
GPGPU-Sim PTX: Finding immediate postdominators for '_Z14dynproc_kerneliPiS_S_iiii'...
GPGPU-Sim PTX: pre-decoding instructions for '_Z14dynproc_kerneliPiS_S_iiii'...
GPGPU-Sim PTX: reconvergence points for _Z14dynproc_kerneliPiS_S_iiii...
GPGPU-Sim PTX:  1 (potential) branch divergence @  PC=0x0c0 (a.1.sm_52.ptx:61) @!%p3 bra BB0_2;
GPGPU-Sim PTX:    immediate post dominator      @  PC=0x110 (a.1.sm_52.ptx:75) bar.sync 0;
GPGPU-Sim PTX:  2 (potential) branch divergence @  PC=0x0c8 (a.1.sm_52.ptx:62) bra.uni BB0_1;
GPGPU-Sim PTX:    immediate post dominator      @  PC=0x0d0 (a.1.sm_52.ptx:65) cvta.to.global.u64 %rd4, %rd2;
GPGPU-Sim PTX:  3 (potential) branch divergence @  PC=0x120 (a.1.sm_52.ptx:77) @%p4 bra BB0_10;
GPGPU-Sim PTX:    immediate post dominator      @  PC=0x338 (a.1.sm_52.ptx:157) and.b16 %rs6, %rs8, 255;
GPGPU-Sim PTX:  4 (potential) branch divergence @  PC=0x208 (a.1.sm_52.ptx:109) @!%p12 bra BB0_6;
GPGPU-Sim PTX:    immediate post dominator      @  PC=0x2b8 (a.1.sm_52.ptx:135) bar.sync 0;
GPGPU-Sim PTX:  5 (potential) branch divergence @  PC=0x210 (a.1.sm_52.ptx:110) bra.uni BB0_5;
GPGPU-Sim PTX:    immediate post dominator      @  PC=0x218 (a.1.sm_52.ptx:113) ld.shared.u32 %r70, [%r2];
GPGPU-Sim PTX:  6 (potential) branch divergence @  PC=0x2c8 (a.1.sm_52.ptx:137) @%p15 bra BB0_10;
GPGPU-Sim PTX:    immediate post dominator      @  PC=0x338 (a.1.sm_52.ptx:157) and.b16 %rs6, %rs8, 255;
GPGPU-Sim PTX:  7 (potential) branch divergence @  PC=0x2d8 (a.1.sm_52.ptx:140) @%p16 bra BB0_9;
GPGPU-Sim PTX:    immediate post dominator      @  PC=0x310 (a.1.sm_52.ptx:150) bar.sync 0;
GPGPU-Sim PTX:  8 (potential) branch divergence @  PC=0x330 (a.1.sm_52.ptx:154) @%p17 bra BB0_4;
GPGPU-Sim PTX:    immediate post dominator      @  PC=0x338 (a.1.sm_52.ptx:157) and.b16 %rs6, %rs8, 255;
GPGPU-Sim PTX:  9 (potential) branch divergence @  PC=0x348 (a.1.sm_52.ptx:159) @%p18 bra BB0_12;
GPGPU-Sim PTX:    immediate post dominator      @  PC=0x390 (a.1.sm_52.ptx:171) ret;
GPGPU-Sim PTX: ... end of reconvergence points for _Z14dynproc_kerneliPiS_S_iiii
GPGPU-Sim PTX: ... done pre-decoding instructions for '_Z14dynproc_kerneliPiS_S_iiii'.
GPGPU-Sim PTX: pushing kernel '_Z14dynproc_kerneliPiS_S_iiii' to stream 0, gridDim= (47,1,1) blockDim = (256,1,1) 
GPGPU-Sim uArch: Shader 0 bind to kernel 1 '_Z14dynproc_kerneliPiS_S_iiii'
GPGPU-Sim uArch: CTA/core = 8, limited by: threads
GPGPU-Sim uArch: Shader 1 bind to kernel 1 '_Z14dynproc_kerneliPiS_S_iiii'
GPGPU-Sim uArch: Shader 2 bind to kernel 1 '_Z14dynproc_kerneliPiS_S_iiii'
GPGPU-Sim uArch: Shader 3 bind to kernel 1 '_Z14dynproc_kerneliPiS_S_iiii'
GPGPU-Sim uArch: Shader 4 bind to kernel 1 '_Z14dynproc_kerneliPiS_S_iiii'
GPGPU-Sim uArch: Shader 5 bind to kernel 1 '_Z14dynproc_kerneliPiS_S_iiii'
GPGPU-Sim uArch: Shader 6 bind to kernel 1 '_Z14dynproc_kerneliPiS_S_iiii'
GPGPU-Sim uArch: Shader 7 bind to kernel 1 '_Z14dynproc_kerneliPiS_S_iiii'
GPGPU-Sim uArch: Shader 8 bind to kernel 1 '_Z14dynproc_kerneliPiS_S_iiii'
GPGPU-Sim uArch: Shader 9 bind to kernel 1 '_Z14dynproc_kerneliPiS_S_iiii'
GPGPU-Sim uArch: Shader 10 bind to kernel 1 '_Z14dynproc_kerneliPiS_S_iiii'
GPGPU-Sim uArch: Shader 11 bind to kernel 1 '_Z14dynproc_kerneliPiS_S_iiii'
GPGPU-Sim uArch: Shader 12 bind to kernel 1 '_Z14dynproc_kerneliPiS_S_iiii'
GPGPU-Sim uArch: Shader 13 bind to kernel 1 '_Z14dynproc_kerneliPiS_S_iiii'
GPGPU-Sim uArch: Shader 14 bind to kernel 1 '_Z14dynproc_kerneliPiS_S_iiii'
GPGPU-Sim uArch: Shader 15 bind to kernel 1 '_Z14dynproc_kerneliPiS_S_iiii'
GPGPU-Sim uArch: Shader 16 bind to kernel 1 '_Z14dynproc_kerneliPiS_S_iiii'
GPGPU-Sim uArch: Shader 17 bind to kernel 1 '_Z14dynproc_kerneliPiS_S_iiii'
GPGPU-Sim uArch: Shader 18 bind to kernel 1 '_Z14dynproc_kerneliPiS_S_iiii'
GPGPU-Sim uArch: Shader 19 bind to kernel 1 '_Z14dynproc_kerneliPiS_S_iiii'
GPGPU-Sim uArch: Shader 20 bind to kernel 1 '_Z14dynproc_kerneliPiS_S_iiii'
GPGPU-Sim uArch: Shader 21 bind to kernel 1 '_Z14dynproc_kerneliPiS_S_iiii'
GPGPU-Sim uArch: Shader 22 bind to kernel 1 '_Z14dynproc_kerneliPiS_S_iiii'
GPGPU-Sim uArch: Shader 23 bind to kernel 1 '_Z14dynproc_kerneliPiS_S_iiii'
GPGPU-Sim uArch: Shader 24 bind to kernel 1 '_Z14dynproc_kerneliPiS_S_iiii'
GPGPU-Sim uArch: Shader 25 bind to kernel 1 '_Z14dynproc_kerneliPiS_S_iiii'
GPGPU-Sim uArch: Shader 26 bind to kernel 1 '_Z14dynproc_kerneliPiS_S_iiii'
GPGPU-Sim uArch: Shader 27 bind to kernel 1 '_Z14dynproc_kerneliPiS_S_iiii'
Destroy streams for kernel 1: size 0
kernel_name = _Z14dynproc_kerneliPiS_S_iiii 
kernel_launch_uid = 1 
gpu_sim_cycle = 18813
gpu_sim_insn = 12710760
gpu_ipc =     675.6371
gpu_tot_sim_cycle = 18813
gpu_tot_sim_insn = 12710760
gpu_tot_ipc =     675.6371
gpu_tot_issued_cta = 47
gpu_occupancy = 20.9623% 
gpu_tot_occupancy = 20.9623% 
max_total_param_size = 0
gpu_stall_dramfull = 0
gpu_stall_icnt2sh    = 0
partiton_level_parallism =       2.0167
partiton_level_parallism_total  =       2.0167
partiton_level_parallism_util =       3.9435
partiton_level_parallism_util_total  =       3.9435
L2_BW  =      91.4448 GB/Sec
L2_BW_total  =      91.4448 GB/Sec
gpu_total_sim_rate=385174

========= Core cache stats =========
L1I_cache:
	L1I_total_cache_accesses = 0
	L1I_total_cache_misses = 0
	L1I_total_cache_pending_hits = 0
	L1I_total_cache_reservation_fails = 0
L1D_cache:
	L1D_cache_core[0]: Access = 0, Miss = 0, Miss_rate = -nan, Pending_hits = 0, Reservation_fails = 0
	L1D_cache_core[1]: Access = 0, Miss = 0, Miss_rate = -nan, Pending_hits = 0, Reservation_fails = 0
	L1D_cache_core[2]: Access = 0, Miss = 0, Miss_rate = -nan, Pending_hits = 0, Reservation_fails = 0
	L1D_cache_core[3]: Access = 0, Miss = 0, Miss_rate = -nan, Pending_hits = 0, Reservation_fails = 0
	L1D_cache_core[4]: Access = 0, Miss = 0, Miss_rate = -nan, Pending_hits = 0, Reservation_fails = 0
	L1D_cache_core[5]: Access = 0, Miss = 0, Miss_rate = -nan, Pending_hits = 0, Reservation_fails = 0
	L1D_cache_core[6]: Access = 0, Miss = 0, Miss_rate = -nan, Pending_hits = 0, Reservation_fails = 0
	L1D_cache_core[7]: Access = 0, Miss = 0, Miss_rate = -nan, Pending_hits = 0, Reservation_fails = 0
	L1D_cache_core[8]: Access = 0, Miss = 0, Miss_rate = -nan, Pending_hits = 0, Reservation_fails = 0
	L1D_cache_core[9]: Access = 0, Miss = 0, Miss_rate = -nan, Pending_hits = 0, Reservation_fails = 0
	L1D_cache_core[10]: Access = 0, Miss = 0, Miss_rate = -nan, Pending_hits = 0, Reservation_fails = 0
	L1D_cache_core[11]: Access = 0, Miss = 0, Miss_rate = -nan, Pending_hits = 0, Reservation_fails = 0
	L1D_cache_core[12]: Access = 0, Miss = 0, Miss_rate = -nan, Pending_hits = 0, Reservation_fails = 0
	L1D_cache_core[13]: Access = 0, Miss = 0, Miss_rate = -nan, Pending_hits = 0, Reservation_fails = 0
	L1D_cache_core[14]: Access = 0, Miss = 0, Miss_rate = -nan, Pending_hits = 0, Reservation_fails = 0
	L1D_cache_core[15]: Access = 0, Miss = 0, Miss_rate = -nan, Pending_hits = 0, Reservation_fails = 0
	L1D_cache_core[16]: Access = 0, Miss = 0, Miss_rate = -nan, Pending_hits = 0, Reservation_fails = 0
	L1D_cache_core[17]: Access = 0, Miss = 0, Miss_rate = -nan, Pending_hits = 0, Reservation_fails = 0
	L1D_cache_core[18]: Access = 0, Miss = 0, Miss_rate = -nan, Pending_hits = 0, Reservation_fails = 0
	L1D_cache_core[19]: Access = 0, Miss = 0, Miss_rate = -nan, Pending_hits = 0, Reservation_fails = 0
	L1D_cache_core[20]: Access = 0, Miss = 0, Miss_rate = -nan, Pending_hits = 0, Reservation_fails = 0
	L1D_cache_core[21]: Access = 0, Miss = 0, Miss_rate = -nan, Pending_hits = 0, Reservation_fails = 0
	L1D_cache_core[22]: Access = 0, Miss = 0, Miss_rate = -nan, Pending_hits = 0, Reservation_fails = 0
	L1D_cache_core[23]: Access = 0, Miss = 0, Miss_rate = -nan, Pending_hits = 0, Reservation_fails = 0
	L1D_cache_core[24]: Access = 0, Miss = 0, Miss_rate = -nan, Pending_hits = 0, Reservation_fails = 0
	L1D_cache_core[25]: Access = 0, Miss = 0, Miss_rate = -nan, Pending_hits = 0, Reservation_fails = 0
	L1D_cache_core[26]: Access = 0, Miss = 0, Miss_rate = -nan, Pending_hits = 0, Reservation_fails = 0
	L1D_cache_core[27]: Access = 0, Miss = 0, Miss_rate = -nan, Pending_hits = 0, Reservation_fails = 0
	L1D_total_cache_accesses = 0
	L1D_total_cache_misses = 0
	L1D_total_cache_pending_hits = 0
	L1D_total_cache_reservation_fails = 0
	L1D_cache_data_port_util = 0.000
	L1D_cache_fill_port_util = 0.000
L1C_cache:
	L1C_total_cache_accesses = 0
	L1C_total_cache_misses = 0
	L1C_total_cache_pending_hits = 0
	L1C_total_cache_reservation_fails = 0
L1T_cache:
	L1T_total_cache_accesses = 0
	L1T_total_cache_misses = 0
	L1T_total_cache_pending_hits = 0
	L1T_total_cache_reservation_fails = 0

Total_core_cache_stats:
	Total_core_cache_stats_breakdown[GLOBAL_ACC_R][HIT] = 0
	Total_core_cache_stats_breakdown[GLOBAL_ACC_R][HIT_RESERVED] = 0
	Total_core_cache_stats_breakdown[GLOBAL_ACC_R][MISS] = 0
	Total_core_cache_stats_breakdown[GLOBAL_ACC_R][RESERVATION_FAIL] = 0
	Total_core_cache_stats_breakdown[GLOBAL_ACC_R][SECTOR_MISS] = 0
	Total_core_cache_stats_breakdown[LOCAL_ACC_R][HIT] = 0
	Total_core_cache_stats_breakdown[LOCAL_ACC_R][HIT_RESERVED] = 0
	Total_core_cache_stats_breakdown[LOCAL_ACC_R][MISS] = 0
	Total_core_cache_stats_breakdown[LOCAL_ACC_R][RESERVATION_FAIL] = 0
	Total_core_cache_stats_breakdown[LOCAL_ACC_R][SECTOR_MISS] = 0
	Total_core_cache_stats_breakdown[CONST_ACC_R][HIT] = 0
	Total_core_cache_stats_breakdown[CONST_ACC_R][HIT_RESERVED] = 0
	Total_core_cache_stats_breakdown[CONST_ACC_R][MISS] = 0
	Total_core_cache_stats_breakdown[CONST_ACC_R][RESERVATION_FAIL] = 0
	Total_core_cache_stats_breakdown[CONST_ACC_R][SECTOR_MISS] = 0
	Total_core_cache_stats_breakdown[TEXTURE_ACC_R][HIT] = 0
	Total_core_cache_stats_breakdown[TEXTURE_ACC_R][HIT_RESERVED] = 0
	Total_core_cache_stats_breakdown[TEXTURE_ACC_R][MISS] = 0
	Total_core_cache_stats_breakdown[TEXTURE_ACC_R][RESERVATION_FAIL] = 0
	Total_core_cache_stats_breakdown[TEXTURE_ACC_R][SECTOR_MISS] = 0
	Total_core_cache_stats_breakdown[GLOBAL_ACC_W][HIT] = 0
	Total_core_cache_stats_breakdown[GLOBAL_ACC_W][HIT_RESERVED] = 0
	Total_core_cache_stats_breakdown[GLOBAL_ACC_W][MISS] = 0
	Total_core_cache_stats_breakdown[GLOBAL_ACC_W][RESERVATION_FAIL] = 0
	Total_core_cache_stats_breakdown[GLOBAL_ACC_W][SECTOR_MISS] = 0
	Total_core_cache_stats_breakdown[LOCAL_ACC_W][HIT] = 0
	Total_core_cache_stats_breakdown[LOCAL_ACC_W][HIT_RESERVED] = 0
	Total_core_cache_stats_breakdown[LOCAL_ACC_W][MISS] = 0
	Total_core_cache_stats_breakdown[LOCAL_ACC_W][RESERVATION_FAIL] = 0
	Total_core_cache_stats_breakdown[LOCAL_ACC_W][SECTOR_MISS] = 0
	Total_core_cache_stats_breakdown[L1_WRBK_ACC][HIT] = 0
	Total_core_cache_stats_breakdown[L1_WRBK_ACC][HIT_RESERVED] = 0
	Total_core_cache_stats_breakdown[L1_WRBK_ACC][MISS] = 0
	Total_core_cache_stats_breakdown[L1_WRBK_ACC][RESERVATION_FAIL] = 0
	Total_core_cache_stats_breakdown[L1_WRBK_ACC][SECTOR_MISS] = 0
	Total_core_cache_stats_breakdown[L2_WRBK_ACC][HIT] = 0
	Total_core_cache_stats_breakdown[L2_WRBK_ACC][HIT_RESERVED] = 0
	Total_core_cache_stats_breakdown[L2_WRBK_ACC][MISS] = 0
	Total_core_cache_stats_breakdown[L2_WRBK_ACC][RESERVATION_FAIL] = 0
	Total_core_cache_stats_breakdown[L2_WRBK_ACC][SECTOR_MISS] = 0
	Total_core_cache_stats_breakdown[INST_ACC_R][HIT] = 0
	Total_core_cache_stats_breakdown[INST_ACC_R][HIT_RESERVED] = 0
	Total_core_cache_stats_breakdown[INST_ACC_R][MISS] = 0
	Total_core_cache_stats_breakdown[INST_ACC_R][RESERVATION_FAIL] = 0
	Total_core_cache_stats_breakdown[INST_ACC_R][SECTOR_MISS] = 0
	Total_core_cache_stats_breakdown[L1_WR_ALLOC_R][HIT] = 0
	Total_core_cache_stats_breakdown[L1_WR_ALLOC_R][HIT_RESERVED] = 0
	Total_core_cache_stats_breakdown[L1_WR_ALLOC_R][MISS] = 0
	Total_core_cache_stats_breakdown[L1_WR_ALLOC_R][RESERVATION_FAIL] = 0
	Total_core_cache_stats_breakdown[L1_WR_ALLOC_R][SECTOR_MISS] = 0
	Total_core_cache_stats_breakdown[L2_WR_ALLOC_R][HIT] = 0
	Total_core_cache_stats_breakdown[L2_WR_ALLOC_R][HIT_RESERVED] = 0
	Total_core_cache_stats_breakdown[L2_WR_ALLOC_R][MISS] = 0
	Total_core_cache_stats_breakdown[L2_WR_ALLOC_R][RESERVATION_FAIL] = 0
	Total_core_cache_stats_breakdown[L2_WR_ALLOC_R][SECTOR_MISS] = 0

Total_core_cache_fail_stats:
ctas_completed 47, Shader 0 warp_id issue ditsribution:
warp_id:
0, 1, 2, 3, 4, 5, 6, 7, 8, 9, 10, 11, 12, 13, 14, 15, 
distro:
1246, 1246, 1245, 1246, 1246, 1246, 1246, 1246, 1245, 1246, 1243, 1245, 1246, 1245, 1246, 1246, 
gpgpu_n_tot_thrd_icount = 13941152
gpgpu_n_tot_w_icount = 435661
gpgpu_n_stall_shd_mem = 29778
gpgpu_n_mem_read_local = 0
gpgpu_n_mem_write_local = 0
gpgpu_n_mem_read_global = 36366
gpgpu_n_mem_write_global = 1574
gpgpu_n_mem_texture = 0
gpgpu_n_mem_const = 0
gpgpu_n_load_insn  = 229320
gpgpu_n_store_insn = 10000
gpgpu_n_shmem_insn = 1306720
gpgpu_n_sstarr_insn = 0
gpgpu_n_tex_insn = 0
gpgpu_n_const_mem_insn = 0
gpgpu_n_param_mem_insn = 84224
gpgpu_n_shmem_bkconflict = 0
gpgpu_n_cache_bkconflict = 0
gpgpu_n_intrawarp_mshr_merge = 0
gpgpu_n_cmem_portconflict = 0
gpgpu_stall_shd_mem[c_mem][resource_stall] = 0
gpgpu_stall_shd_mem[s_mem][bk_conf] = 0
gpgpu_stall_shd_mem[gl_mem][resource_stall] = 0
gpgpu_stall_shd_mem[gl_mem][coal_stall] = 29778
gpgpu_stall_shd_mem[gl_mem][data_port_stall] = 0
gpu_reg_bank_conflict_stalls = 0
Warp Occupancy Distribution:
Stall:8080	W0_Idle:31846	W0_Scoreboard:1056700	W1:0	W2:0	W3:0	W4:0	W5:0	W6:0	W7:0	W8:0	W9:0	W10:0	W11:0	W12:3219	W13:2484	W14:2484	W15:2484	W16:2484	W17:2484	W18:2484	W19:2484	W20:3035	W21:2484	W22:2484	W23:2484	W24:2484	W25:2484	W26:2484	W27:2484	W28:2484	W29:2484	W30:2484	W31:2484	W32:384695
single_issue_nums: WS0:94221	WS1:94211	WS2:94229	WS3:93818	
dual_issue_nums: WS0:7416	WS1:7421	WS2:7412	WS3:7342	
traffic_breakdown_coretomem[GLOBAL_ACC_R] = 290928 {8:36366,}
traffic_breakdown_coretomem[GLOBAL_ACC_W] = 62960 {40:1574,}
traffic_breakdown_memtocore[GLOBAL_ACC_R] = 1454640 {40:36366,}
traffic_breakdown_memtocore[GLOBAL_ACC_W] = 12592 {8:1574,}
maxmflatency = 357 
max_icnt2mem_latency = 71 
maxmrqlatency = 49 
max_icnt2sh_latency = 42 
averagemflatency = 235 
avg_icnt2mem_latency = 13 
avg_mrq_latency = 2 
avg_icnt2sh_latency = 9 
mrq_lat_table:15942 	2453 	1878 	1515 	766 	44 	0 	0 	0 	0 	0 	0 	0 	0 	0 	0 	0 	0 	0 	0 	0 	0 	0 	0 	0 	0 	0 	0 	0 	0 	0 	0 	
dq_lat_table:0 	0 	0 	0 	0 	0 	0 	0 	0 	0 	0 	0 	0 	0 	0 	0 	0 	0 	0 	0 	0 	0 	0 	0 	0 	0 	0 	0 	0 	0 	0 	0 	
mf_lat_table:0 	0 	0 	0 	0 	0 	0 	23397 	14543 	0 	0 	0 	0 	0 	0 	0 	0 	0 	0 	0 	0 	0 	0 	0 	0 	0 	0 	0 	0 	0 	0 	0 	
icnt2mem_lat_table:0 	0 	11727 	17825 	5676 	2623 	89 	0 	0 	0 	0 	0 	0 	0 	0 	0 	0 	0 	0 	0 	0 	0 	0 	0 	
icnt2sh_lat_table:0 	0 	16861 	18113 	2829 	137 	0 	0 	0 	0 	0 	0 	0 	0 	0 	0 	0 	0 	0 	0 	0 	0 	0 	0 	
mf_lat_pw_table:0 	0 	0 	0 	0 	0 	0 	25 	2 	0 	0 	0 	0 	0 	0 	0 	0 	0 	0 	0 	0 	0 	0 	0 	0 	0 	0 	0 	0 	0 	0 	0 	
maximum concurrent accesses to same row:
dram[0]:        52        76        52        64        56        56        60        52        48        48        68        32        48        64        24        32 
dram[1]:        56        60        40        68        80        64        44        60        36        28        40        48        56        40        60        68 
dram[2]:        52        56        36        44        40        72        72        56        28        28        68        60        44        24        76        40 
dram[3]:        64        36        56        56        36        52        24        60        72        76        44        56        56        52        76        92 
dram[4]:        80        72        52        56        64        56        48        48        44        60        72        64        60        76        72        60 
dram[5]:        52        40        56        52        56        56        76        60        60        56        48        44        68        76        60        52 
dram[6]:        60        44        24        68        40        56        48        52        40        48        52        56        56        52        56        60 
dram[7]:        52        56        72        36        76        44        68        72        36        48        68        64        32        44        32        72 
dram[8]:        84        56        56        44        64        68        48        96        88        64        56        40        76        52        64        48 
dram[9]:        48        52        72        36        68        48        76        32        40        36        32        64        52        68        44        52 
dram[10]:        64        44        84        56        64        48        60        48        60        64        48        48        60        80        72        72 
dram[11]:        40        56        60        76        56        80        56        44        64        40        60        68        76        60        48        40 
maximum service time to same row:
dram[0]:     10714     10742     11503     11479     12076     12101     12725     13047     13184     13614     14382     14532     15321     15173     15849     15864 
dram[1]:     10677     10762     11484     11452     12125     12142     12782     12750     13638     13187     13781     14549     15215     15229     15792     15811 
dram[2]:     10524     10759     11533     11463     12115     12122     13071     13053     13633     13689     14541     14526     15165     15717     15809     15801 
dram[3]:     10686     10523     11480     11490     12122     11993     12784     13022     13671     13701     14575     14613     15194     15161     16151     15856 
dram[4]:     10663     10778     11547     11503     12133     12135     12771     12596     13886     13645     14525     14546     15182     15179     15597     15589 
dram[5]:     10777     10568     11408     11507     12101     11995     12761     12748     13872     13893     14545     14613     15179     15171     16102     15856 
dram[6]:     10775     10239     11511     11512     12103     12074     13010     13005     13667     13665     14816     13783     14988     15228     16072     15845 
dram[7]:     10727     10899     11471     11739     12358     12139     13026     12591     13630     13899     14528     14631     15264     14983     15837     15813 
dram[8]:     10570     10550     11458     11666     12124     12110     12755     12725     13891     13624     14640     14593     15190     14993     15818     15844 
dram[9]:     10536     10753     11520     11809     12097     12116     12736     12759     13187     13637     14611     14597     15175     15233     15802     16074 
dram[10]:     10540     10698     11497     11847     12140     12395     12595     12765     13879     13639     13791     14384     15226     15207     15796     15792 
dram[11]:     10901     10588     11461     11403     11995     12084     13249     13030     13631     13686     14515     14526     15185     15213     15861     15848 
average row accesses per activate:
dram[0]: 72.000000 96.000000 42.000000 66.000000 112.000000 120.000000 120.000000 88.000000 104.000000 84.000000 108.000000 92.000000 96.000000 124.000000 60.000000 84.000000 
dram[1]: 73.000000 78.000000 50.000000 78.000000 160.000000 116.000000 80.000000 100.000000 96.000000 112.000000 104.000000 84.000000 108.000000 116.000000 152.000000 108.000000 
dram[2]: 90.000000 60.000000 50.000000 54.000000 100.000000 136.000000 112.000000 132.000000 108.000000 72.000000 120.000000 104.000000 108.000000 48.000000 148.000000 116.000000 
dram[3]: 82.000000 58.000000 66.000000 70.000000 108.000000 96.000000 92.000000 136.000000 120.000000 144.000000 92.000000 140.000000 116.000000 108.000000 128.000000 140.000000 
dram[4]: 100.000000 98.000000 54.000000 76.000000 120.000000 116.000000 112.000000 92.000000 124.000000 136.000000 132.000000 152.000000 128.000000 144.000000 132.000000 104.000000 
dram[5]: 74.000000 46.000000 60.000000 64.000000 124.000000 104.000000 120.000000 132.000000 96.000000 100.000000 104.000000 88.000000 116.000000 148.000000 84.000000 124.000000 
dram[6]: 68.000000 60.000000 58.000000 66.000000 100.000000 128.000000 100.000000 124.000000 84.000000 92.000000 100.000000 100.000000 84.000000 112.000000 96.000000 128.000000 
dram[7]: 76.000000 82.000000 64.000000 44.000000 124.000000 100.000000 116.000000 124.000000 84.000000 92.000000 136.000000 96.000000 92.000000 120.000000 120.000000 140.000000 
dram[8]: 72.000000 96.000000 66.000000 52.000000 120.000000 124.000000 116.000000 152.000000 140.000000 120.000000 92.000000 72.000000 132.000000 120.000000 120.000000 100.000000 
dram[9]: 62.000000 72.000000 74.000000 60.000000 128.000000 124.000000 176.000000 84.000000 96.000000 72.000000 100.000000 124.000000 128.000000 116.000000 108.000000 84.000000 
dram[10]: 80.000000 78.000000 74.000000 68.000000 104.000000 84.000000 112.000000 96.000000 112.000000 116.000000 100.000000 104.000000 120.000000 128.000000 156.000000 140.000000 
dram[11]: 64.000000 62.000000 64.000000 60.000000 96.000000 128.000000 92.000000 92.000000 100.000000 108.000000 104.000000 100.000000 136.000000 104.000000 88.000000 96.000000 
average row locality = 22598/240 = 94.158333
number of total memory accesses made:
dram[0]:         0         0         0         0         0         0         0         0         0         0         0         0         0         0         0         0 
dram[1]:         0         0         0         0         0         0         0         0         0         0         0         0         0         0         0         0 
dram[2]:         0         0         0         0         0         0         0         0         0         0         0         0         0         0         0         0 
dram[3]:         0         0         0         0         0         0         0         0         0         0         0         0         0         0         0         0 
dram[4]:         0         0         0         0         0         0         0         0         0         0         0         0         0         0         0         0 
dram[5]:         0         0         0         0         0         0         0         0         0         0         0         0         0         0         0         0 
dram[6]:         0         0         0         0         0         0         0         0         0         0         0         0         0         0         0         0 
dram[7]:         0         0         0         0         0         0         0         0         0         0         0         0         0         0         0         0 
dram[8]:         0         0         0         0         0         0         0         0         0         0         0         0         0         0         0         0 
dram[9]:         0         0         0         0         0         0         0         0         0         0         0         0         0         0         0         0 
dram[10]:         0         0         0         0         0         0         0         0         0         0         0         0         0         0         0         0 
dram[11]:         0         0         0         0         0         0         0         0         0         0         0         0         0         0         0         0 
total accesses: 0
min_bank_accesses = 0!
min_chip_accesses = 0!
number of total read accesses:
dram[0]:       144       192        84       132       112       120       120        88       104        84       108        92        96       124        60        84 
dram[1]:       146       156       100       156       160       116        80       100        96       112       104        84       108       116       152       108 
dram[2]:       180       120       100       108       100       136       112       132       108        72       120       104       108        48       148       116 
dram[3]:       164       116       132       140       108        96        92       136       120       144        92       140       116       108       128       140 
dram[4]:       200       196       108       152       120       116       112        92       124       136       132       152       128       144       132       104 
dram[5]:       148        92       120       128       124       104       120       132        96       100       104        88       116       148        84       124 
dram[6]:       136       120       116       132       100       128       100       124        84        92       100       100        84       112        96       128 
dram[7]:       152       164       128        88       124       100       116       124        84        92       136        96        92       120       120       140 
dram[8]:       144       192       132       104       120       124       116       152       140       120        92        72       132       120       120       100 
dram[9]:       124       144       148       120       128       124       176        84        96        72       100       124       128       116       108        84 
dram[10]:       160       156       148       136       104        84       112        96       112       116       100       104       120       128       156       140 
dram[11]:       128       124       128       120        96       128        92        92       100       108       104       100       136       104        88        96 
total dram reads = 22598
bank skew: 200/48 = 4.17
chip skew: 2148/1744 = 1.23
number of total write accesses:
dram[0]:         0         0         0         0         0         0         0         0         0         0         0         0         0         0         0         0 
dram[1]:         0         0         0         0         0         0         0         0         0         0         0         0         0         0         0         0 
dram[2]:         0         0         0         0         0         0         0         0         0         0         0         0         0         0         0         0 
dram[3]:         0         0         0         0         0         0         0         0         0         0         0         0         0         0         0         0 
dram[4]:         0         0         0         0         0         0         0         0         0         0         0         0         0         0         0         0 
dram[5]:         0         0         0         0         0         0         0         0         0         0         0         0         0         0         0         0 
dram[6]:         0         0         0         0         0         0         0         0         0         0         0         0         0         0         0         0 
dram[7]:         0         0         0         0         0         0         0         0         0         0         0         0         0         0         0         0 
dram[8]:         0         0         0         0         0         0         0         0         0         0         0         0         0         0         0         0 
dram[9]:         0         0         0         0         0         0         0         0         0         0         0         0         0         0         0         0 
dram[10]:         0         0         0         0         0         0         0         0         0         0         0         0         0         0         0         0 
dram[11]:         0         0         0         0         0         0         0         0         0         0         0         0         0         0         0         0 
total dram writes = 0
min_bank_accesses = 0!
min_chip_accesses = 0!
average mf latency per bank:
dram[0]:        376       389       539       459       377       384       417       387       391       370       411       390       381       351       428       383
dram[1]:        396       385       428       407       357       422       389       434       372       352       390       387       362       343       369       392
dram[2]:        416       481       433       413       372       382       349       384       398       488       370       365       363       409       386       387
dram[3]:        419       413       448       430       365       400       379       373       382       397       376       375       377       361       360       377
dram[4]:        370       368       469       433       408       373       381       366       352       344       383       354       348       353       344       378
dram[5]:        492       535       409       433       393       408       394       385       439       378       378       358       350       358       336       347
dram[6]:        447       455       460       438       335       385       388       385       425       410       369       410       393       357       363       361
dram[7]:        381       409       404       474       400       431       385       397       376       394       364       363       355       350       336       338
dram[8]:        386       411       452       384       384       379       375       352       358       381       383       430       364       342       373       347
dram[9]:        411       429       420       426       438       359       381       387       416       475       358       372       355       380       343       349
dram[10]:        432       416       445       424       425       379       376       390       379       398       395       410       348       401       343       344
dram[11]:        376       394       489       473       387       395       439       403       405       377       338       439       401       357       347       389
maximum mf latency per bank:
dram[0]:        305       313       316       303       312       329       305       292       285       296       279       272       276       270       272       278
dram[1]:        299       284       299       314       303       319       313       297       288       276       269       291       275       272       282       298
dram[2]:        309       300       324       305       298       310       283       295       281       280       295       294       272       279       280       277
dram[3]:        310       303       313       313       314       307       288       276       293       299       287       290       289       306       276       279
dram[4]:        334       308       283       296       308       309       295       281       284       282       286       286       287       282       275       279
dram[5]:        305       308       290       311       327       326       343       357       291       281       273       271       285       276       274       279
dram[6]:        313       300       320       320       292       291       299       306       288       292       270       274       271       282       280       279
dram[7]:        302       314       287       288       291       294       296       303       280       295       290       274       282       274       273       287
dram[8]:        309       304       316       307       297       303       297       308       292       290       287       278       282       273       280       286
dram[9]:        303       297       315       314       326       320       290       280       281       287       274       274       277       274       273       270
dram[10]:        338       324       299       302       311       307       300       297       304       304       276       276       285       277       278       274
dram[11]:        303       299       294       294       310       308       305       303       290       287       275       280       280       279       275       283
Memory Partition 0: 
Cache L2_bank_000:
MSHR contents

Cache L2_bank_001:
MSHR contents

In Dram Latency Queue (total = 0): 
DRAM[0]: 16 bks, busW=4 BL=8 CL=16, tRRD=8 tCCD=2, tRCD=16 tRAS=37 tRP=16 tRC=52
n_cmd=33190 n_nop=31391 n_act=36 n_pre=20 n_ref_event=94830438222496 n_req=1744 n_rd=1744 n_rd_L2_A=0 n_write=0 n_wr_bk=0 bw_util=0.1051
n_activity=9070 dram_eff=0.3846
bk0: 144a 32886i bk1: 192a 32662i bk2: 84a 32948i bk3: 132a 32870i bk4: 112a 32919i bk5: 120a 32859i bk6: 120a 32915i bk7: 88a 32970i bk8: 104a 32944i bk9: 84a 32956i bk10: 108a 32939i bk11: 92a 32999i bk12: 96a 32983i bk13: 124a 32924i bk14: 60a 33034i bk15: 84a 32968i 

------------------------------------------------------------------------

Row_Buffer_Locality = 0.988532
Row_Buffer_Locality_read = 0.988532
Row_Buffer_Locality_write = -nan
Bank_Level_Parallism = 1.195709
Bank_Level_Parallism_Col = 0.678884
Bank_Level_Parallism_Ready = 1.073925
write_to_read_ratio_blp_rw_average = 0.000000
GrpLevelPara = 0.000000 

BW Util details:
bwutil = 0.105092 
total_CMD = 33190 
util_bw = 3488 
Wasted_Col = 1851 
Wasted_Row = 244 
Idle = 27607 

BW Util Bottlenecks: 
RCDc_limit = 455 
RCDWRc_limit = 0 
WTRc_limit = 0 
RTWc_limit = 0 
CCDLc_limit = 1480 
rwq = 0 
CCDLc_limit_alone = 1480 
WTRc_limit_alone = 0 
RTWc_limit_alone = 0 

Commands details: 
total_CMD = 33190 
n_nop = 31391 
Read = 1744 
Write = 0 
L2_Alloc = 0 
L2_WB = 0 
n_act = 36 
n_pre = 20 
n_ref = 94830438222496 
n_req = 1744 
total_req = 1744 

Dual Bus Interface Util: 
issued_total_row = 56 
issued_total_col = 1744 
Row_Bus_Util =  0.001687 
CoL_Bus_Util = 0.052546 
Either_Row_CoL_Bus_Util = 0.054203 
Issued_on_Two_Bus_Simul_Util = 0.000030 
issued_two_Eff = 0.000556 
queue_avg = 0.195752 


dram_util_bins: 0 0 0 0 0 0 0 0 0 0
dram_eff_bins: 0 0 0 0 0 0 0 0 0 0
mrqq: max=14 avg=0.195752
Memory Partition 1: 
Cache L2_bank_002:
MSHR contents

Cache L2_bank_003:
MSHR contents

In Dram Latency Queue (total = 0): 
DRAM[1]: 16 bks, busW=4 BL=8 CL=16, tRRD=8 tCCD=2, tRCD=16 tRAS=37 tRP=16 tRC=52
n_cmd=33190 n_nop=31240 n_act=36 n_pre=20 n_ref_event=0 n_req=1894 n_rd=1894 n_rd_L2_A=0 n_write=0 n_wr_bk=0 bw_util=0.1141
n_activity=9450 dram_eff=0.4008
bk0: 146a 32850i bk1: 156a 32775i bk2: 100a 32922i bk3: 156a 32833i bk4: 160a 32773i bk5: 116a 32896i bk6: 80a 32978i bk7: 100a 32943i bk8: 96a 32960i bk9: 112a 32898i bk10: 104a 32958i bk11: 84a 32971i bk12: 108a 32960i bk13: 116a 32951i bk14: 152a 32817i bk15: 108a 32890i 

------------------------------------------------------------------------

Row_Buffer_Locality = 0.989440
Row_Buffer_Locality_read = 0.989440
Row_Buffer_Locality_write = -nan
Bank_Level_Parallism = 1.211682
Bank_Level_Parallism_Col = 1.004530
Bank_Level_Parallism_Ready = 1.078100
write_to_read_ratio_blp_rw_average = 0.000000
GrpLevelPara = 0.000000 

BW Util details:
bwutil = 0.114131 
total_CMD = 33190 
util_bw = 3788 
Wasted_Col = 2025 
Wasted_Row = 204 
Idle = 27173 

BW Util Bottlenecks: 
RCDc_limit = 466 
RCDWRc_limit = 0 
WTRc_limit = 0 
RTWc_limit = 0 
CCDLc_limit = 1642 
rwq = 0 
CCDLc_limit_alone = 1642 
WTRc_limit_alone = 0 
RTWc_limit_alone = 0 

Commands details: 
total_CMD = 33190 
n_nop = 31240 
Read = 1894 
Write = 0 
L2_Alloc = 0 
L2_WB = 0 
n_act = 36 
n_pre = 20 
n_ref = 0 
n_req = 1894 
total_req = 1894 

Dual Bus Interface Util: 
issued_total_row = 56 
issued_total_col = 1894 
Row_Bus_Util =  0.001687 
CoL_Bus_Util = 0.057065 
Either_Row_CoL_Bus_Util = 0.058753 
Issued_on_Two_Bus_Simul_Util = 0.000000 
issued_two_Eff = 0.000000 
queue_avg = 0.199006 


dram_util_bins: 0 0 0 0 0 0 0 0 0 0
dram_eff_bins: 0 0 0 0 0 0 0 0 0 0
mrqq: max=14 avg=0.199006
Memory Partition 2: 
Cache L2_bank_004:
MSHR contents

Cache L2_bank_005:
MSHR contents

In Dram Latency Queue (total = 0): 
DRAM[2]: 16 bks, busW=4 BL=8 CL=16, tRRD=8 tCCD=2, tRCD=16 tRAS=37 tRP=16 tRC=52
n_cmd=33190 n_nop=31322 n_act=36 n_pre=20 n_ref_event=0 n_req=1812 n_rd=1812 n_rd_L2_A=0 n_write=0 n_wr_bk=0 bw_util=0.1092
n_activity=9333 dram_eff=0.3883
bk0: 180a 32756i bk1: 120a 32892i bk2: 100a 32936i bk3: 108a 32931i bk4: 100a 32971i bk5: 136a 32862i bk6: 112a 32930i bk7: 132a 32897i bk8: 108a 32942i bk9: 72a 33002i bk10: 120a 32914i bk11: 104a 32936i bk12: 108a 32958i bk13: 48a 33054i bk14: 148a 32881i bk15: 116a 32909i 

------------------------------------------------------------------------

Row_Buffer_Locality = 0.988962
Row_Buffer_Locality_read = 0.988962
Row_Buffer_Locality_write = -nan
Bank_Level_Parallism = 1.194852
Bank_Level_Parallism_Col = 1.173562
Bank_Level_Parallism_Ready = 1.043574
write_to_read_ratio_blp_rw_average = 0.000000
GrpLevelPara = 1.170045 

BW Util details:
bwutil = 0.109190 
total_CMD = 33190 
util_bw = 3624 
Wasted_Col = 1916 
Wasted_Row = 180 
Idle = 27470 

BW Util Bottlenecks: 
RCDc_limit = 427 
RCDWRc_limit = 0 
WTRc_limit = 0 
RTWc_limit = 0 
CCDLc_limit = 1583 
rwq = 0 
CCDLc_limit_alone = 1583 
WTRc_limit_alone = 0 
RTWc_limit_alone = 0 

Commands details: 
total_CMD = 33190 
n_nop = 31322 
Read = 1812 
Write = 0 
L2_Alloc = 0 
L2_WB = 0 
n_act = 36 
n_pre = 20 
n_ref = 0 
n_req = 1812 
total_req = 1812 

Dual Bus Interface Util: 
issued_total_row = 56 
issued_total_col = 1812 
Row_Bus_Util =  0.001687 
CoL_Bus_Util = 0.054595 
Either_Row_CoL_Bus_Util = 0.056282 
Issued_on_Two_Bus_Simul_Util = 0.000000 
issued_two_Eff = 0.000000 
queue_avg = 0.157487 


dram_util_bins: 0 0 0 0 0 0 0 0 0 0
dram_eff_bins: 0 0 0 0 0 0 0 0 0 0
mrqq: max=9 avg=0.157487
Memory Partition 3: 
Cache L2_bank_006:
MSHR contents

Cache L2_bank_007:
MSHR contents

In Dram Latency Queue (total = 0): 
DRAM[3]: 16 bks, busW=4 BL=8 CL=16, tRRD=8 tCCD=2, tRCD=16 tRAS=37 tRP=16 tRC=52
n_cmd=33190 n_nop=31162 n_act=36 n_pre=20 n_ref_event=0 n_req=1972 n_rd=1972 n_rd_L2_A=0 n_write=0 n_wr_bk=0 bw_util=0.1188
n_activity=9784 dram_eff=0.4031
bk0: 164a 32781i bk1: 116a 32887i bk2: 132a 32904i bk3: 140a 32765i bk4: 108a 32927i bk5: 96a 32931i bk6: 92a 32989i bk7: 136a 32851i bk8: 120a 32915i bk9: 144a 32870i bk10: 92a 32987i bk11: 140a 32855i bk12: 116a 32948i bk13: 108a 32906i bk14: 128a 32912i bk15: 140a 32851i 

------------------------------------------------------------------------

Row_Buffer_Locality = 0.989858
Row_Buffer_Locality_read = 0.989858
Row_Buffer_Locality_write = -nan
Bank_Level_Parallism = 1.218073
Bank_Level_Parallism_Col = 0.984813
Bank_Level_Parallism_Ready = 1.079027
write_to_read_ratio_blp_rw_average = 0.000000
GrpLevelPara = 0.000000 

BW Util details:
bwutil = 0.118831 
total_CMD = 33190 
util_bw = 3944 
Wasted_Col = 1986 
Wasted_Row = 194 
Idle = 27066 

BW Util Bottlenecks: 
RCDc_limit = 463 
RCDWRc_limit = 0 
WTRc_limit = 0 
RTWc_limit = 0 
CCDLc_limit = 1593 
rwq = 0 
CCDLc_limit_alone = 1593 
WTRc_limit_alone = 0 
RTWc_limit_alone = 0 

Commands details: 
total_CMD = 33190 
n_nop = 31162 
Read = 1972 
Write = 0 
L2_Alloc = 0 
L2_WB = 0 
n_act = 36 
n_pre = 20 
n_ref = 0 
n_req = 1972 
total_req = 1972 

Dual Bus Interface Util: 
issued_total_row = 56 
issued_total_col = 1972 
Row_Bus_Util =  0.001687 
CoL_Bus_Util = 0.059415 
Either_Row_CoL_Bus_Util = 0.061103 
Issued_on_Two_Bus_Simul_Util = 0.000000 
issued_two_Eff = 0.000000 
queue_avg = 0.205243 


dram_util_bins: 0 0 0 0 0 0 0 0 0 0
dram_eff_bins: 0 0 0 0 0 0 0 0 0 0
mrqq: max=10 avg=0.205243
Memory Partition 4: 
Cache L2_bank_008:
MSHR contents

Cache L2_bank_009:
MSHR contents

In Dram Latency Queue (total = 0): 
DRAM[4]: 16 bks, busW=4 BL=8 CL=16, tRRD=8 tCCD=2, tRCD=16 tRAS=37 tRP=16 tRC=52
n_cmd=33190 n_nop=30986 n_act=36 n_pre=20 n_ref_event=0 n_req=2148 n_rd=2148 n_rd_L2_A=0 n_write=0 n_wr_bk=0 bw_util=0.1294
n_activity=10323 dram_eff=0.4162
bk0: 200a 32659i bk1: 196a 32665i bk2: 108a 32926i bk3: 152a 32816i bk4: 120a 32920i bk5: 116a 32927i bk6: 112a 32911i bk7: 92a 32917i bk8: 124a 32908i bk9: 136a 32880i bk10: 132a 32880i bk11: 152a 32834i bk12: 128a 32893i bk13: 144a 32883i bk14: 132a 32875i bk15: 104a 32932i 

------------------------------------------------------------------------

Row_Buffer_Locality = 0.990689
Row_Buffer_Locality_read = 0.990689
Row_Buffer_Locality_write = -nan
Bank_Level_Parallism = 1.259170
Bank_Level_Parallism_Col = 1.235787
Bank_Level_Parallism_Ready = 1.061889
write_to_read_ratio_blp_rw_average = 0.000000
GrpLevelPara = 1.229727 

BW Util details:
bwutil = 0.129437 
total_CMD = 33190 
util_bw = 4296 
Wasted_Col = 2049 
Wasted_Row = 166 
Idle = 26679 

BW Util Bottlenecks: 
RCDc_limit = 453 
RCDWRc_limit = 0 
WTRc_limit = 0 
RTWc_limit = 0 
CCDLc_limit = 1704 
rwq = 0 
CCDLc_limit_alone = 1704 
WTRc_limit_alone = 0 
RTWc_limit_alone = 0 

Commands details: 
total_CMD = 33190 
n_nop = 30986 
Read = 2148 
Write = 0 
L2_Alloc = 0 
L2_WB = 0 
n_act = 36 
n_pre = 20 
n_ref = 0 
n_req = 2148 
total_req = 2148 

Dual Bus Interface Util: 
issued_total_row = 56 
issued_total_col = 2148 
Row_Bus_Util =  0.001687 
CoL_Bus_Util = 0.064718 
Either_Row_CoL_Bus_Util = 0.066406 
Issued_on_Two_Bus_Simul_Util = 0.000000 
issued_two_Eff = 0.000000 
queue_avg = 0.305032 


dram_util_bins: 0 0 0 0 0 0 0 0 0 0
dram_eff_bins: 0 0 0 0 0 0 0 0 0 0
mrqq: max=21 avg=0.305032
Memory Partition 5: 
Cache L2_bank_010:
MSHR contents

Cache L2_bank_011:
MSHR contents

In Dram Latency Queue (total = 0): 
DRAM[5]: 16 bks, busW=4 BL=8 CL=16, tRRD=8 tCCD=2, tRCD=16 tRAS=37 tRP=16 tRC=52
n_cmd=33190 n_nop=31307 n_act=36 n_pre=20 n_ref_event=0 n_req=1828 n_rd=1828 n_rd_L2_A=0 n_write=0 n_wr_bk=0 bw_util=0.1102
n_activity=9583 dram_eff=0.3815
bk0: 148a 32808i bk1: 92a 32969i bk2: 120a 32911i bk3: 128a 32870i bk4: 124a 32874i bk5: 104a 32902i bk6: 120a 32845i bk7: 132a 32823i bk8: 96a 32986i bk9: 100a 32964i bk10: 104a 32990i bk11: 88a 32970i bk12: 116a 32942i bk13: 148a 32887i bk14: 84a 32996i bk15: 124a 32890i 

------------------------------------------------------------------------

Row_Buffer_Locality = 0.989059
Row_Buffer_Locality_read = 0.989059
Row_Buffer_Locality_write = -nan
Bank_Level_Parallism = 1.192337
Bank_Level_Parallism_Col = 1.176352
Bank_Level_Parallism_Ready = 1.057924
write_to_read_ratio_blp_rw_average = 0.000000
GrpLevelPara = 1.176352 

BW Util details:
bwutil = 0.110154 
total_CMD = 33190 
util_bw = 3656 
Wasted_Col = 2000 
Wasted_Row = 199 
Idle = 27335 

BW Util Bottlenecks: 
RCDc_limit = 470 
RCDWRc_limit = 0 
WTRc_limit = 0 
RTWc_limit = 0 
CCDLc_limit = 1583 
rwq = 0 
CCDLc_limit_alone = 1583 
WTRc_limit_alone = 0 
RTWc_limit_alone = 0 

Commands details: 
total_CMD = 33190 
n_nop = 31307 
Read = 1828 
Write = 0 
L2_Alloc = 0 
L2_WB = 0 
n_act = 36 
n_pre = 20 
n_ref = 0 
n_req = 1828 
total_req = 1828 

Dual Bus Interface Util: 
issued_total_row = 56 
issued_total_col = 1828 
Row_Bus_Util =  0.001687 
CoL_Bus_Util = 0.055077 
Either_Row_CoL_Bus_Util = 0.056734 
Issued_on_Two_Bus_Simul_Util = 0.000030 
issued_two_Eff = 0.000531 
queue_avg = 0.227207 


dram_util_bins: 0 0 0 0 0 0 0 0 0 0
dram_eff_bins: 0 0 0 0 0 0 0 0 0 0
mrqq: max=17 avg=0.227207
Memory Partition 6: 
Cache L2_bank_012:
MSHR contents

Cache L2_bank_013:
MSHR contents

In Dram Latency Queue (total = 0): 
DRAM[6]: 16 bks, busW=4 BL=8 CL=16, tRRD=8 tCCD=2, tRCD=16 tRAS=37 tRP=16 tRC=52
n_cmd=33190 n_nop=31382 n_act=36 n_pre=20 n_ref_event=0 n_req=1752 n_rd=1752 n_rd_L2_A=0 n_write=0 n_wr_bk=0 bw_util=0.1056
n_activity=9371 dram_eff=0.3739
bk0: 136a 32827i bk1: 120a 32884i bk2: 116a 32885i bk3: 132a 32845i bk4: 100a 32918i bk5: 128a 32939i bk6: 100a 33007i bk7: 124a 32889i bk8: 84a 32981i bk9: 92a 32982i bk10: 100a 32994i bk11: 100a 32977i bk12: 84a 33025i bk13: 112a 32916i bk14: 96a 32967i bk15: 128a 32891i 

------------------------------------------------------------------------

Row_Buffer_Locality = 0.988584
Row_Buffer_Locality_read = 0.988584
Row_Buffer_Locality_write = -nan
Bank_Level_Parallism = 1.177899
Bank_Level_Parallism_Col = 1.159889
Bank_Level_Parallism_Ready = 1.046180
write_to_read_ratio_blp_rw_average = 0.000000
GrpLevelPara = 1.159676 

BW Util details:
bwutil = 0.105574 
total_CMD = 33190 
util_bw = 3504 
Wasted_Col = 1928 
Wasted_Row = 214 
Idle = 27544 

BW Util Bottlenecks: 
RCDc_limit = 460 
RCDWRc_limit = 0 
WTRc_limit = 0 
RTWc_limit = 0 
CCDLc_limit = 1562 
rwq = 0 
CCDLc_limit_alone = 1562 
WTRc_limit_alone = 0 
RTWc_limit_alone = 0 

Commands details: 
total_CMD = 33190 
n_nop = 31382 
Read = 1752 
Write = 0 
L2_Alloc = 0 
L2_WB = 0 
n_act = 36 
n_pre = 20 
n_ref = 0 
n_req = 1752 
total_req = 1752 

Dual Bus Interface Util: 
issued_total_row = 56 
issued_total_col = 1752 
Row_Bus_Util =  0.001687 
CoL_Bus_Util = 0.052787 
Either_Row_CoL_Bus_Util = 0.054474 
Issued_on_Two_Bus_Simul_Util = 0.000000 
issued_two_Eff = 0.000000 
queue_avg = 0.183911 


dram_util_bins: 0 0 0 0 0 0 0 0 0 0
dram_eff_bins: 0 0 0 0 0 0 0 0 0 0
mrqq: max=10 avg=0.183911
Memory Partition 7: 
Cache L2_bank_014:
MSHR contents

Cache L2_bank_015:
MSHR contents

In Dram Latency Queue (total = 0): 
DRAM[7]: 16 bks, busW=4 BL=8 CL=16, tRRD=8 tCCD=2, tRCD=16 tRAS=37 tRP=16 tRC=52
n_cmd=33190 n_nop=31259 n_act=36 n_pre=20 n_ref_event=0 n_req=1876 n_rd=1876 n_rd_L2_A=0 n_write=0 n_wr_bk=0 bw_util=0.113
n_activity=9798 dram_eff=0.3829
bk0: 152a 32829i bk1: 164a 32794i bk2: 128a 32848i bk3: 88a 32967i bk4: 124a 32886i bk5: 100a 32964i bk6: 116a 32907i bk7: 124a 32849i bk8: 84a 32984i bk9: 92a 32954i bk10: 136a 32868i bk11: 96a 32934i bk12: 92a 32953i bk13: 120a 32914i bk14: 120a 32917i bk15: 140a 32838i 

------------------------------------------------------------------------

Row_Buffer_Locality = 0.989339
Row_Buffer_Locality_read = 0.989339
Row_Buffer_Locality_write = -nan
Bank_Level_Parallism = 1.179249
Bank_Level_Parallism_Col = 1.169157
Bank_Level_Parallism_Ready = 1.050640
write_to_read_ratio_blp_rw_average = 0.000000
GrpLevelPara = 1.166858 

BW Util details:
bwutil = 0.113046 
total_CMD = 33190 
util_bw = 3752 
Wasted_Col = 2148 
Wasted_Row = 233 
Idle = 27057 

BW Util Bottlenecks: 
RCDc_limit = 458 
RCDWRc_limit = 0 
WTRc_limit = 0 
RTWc_limit = 0 
CCDLc_limit = 1805 
rwq = 0 
CCDLc_limit_alone = 1805 
WTRc_limit_alone = 0 
RTWc_limit_alone = 0 

Commands details: 
total_CMD = 33190 
n_nop = 31259 
Read = 1876 
Write = 0 
L2_Alloc = 0 
L2_WB = 0 
n_act = 36 
n_pre = 20 
n_ref = 0 
n_req = 1876 
total_req = 1876 

Dual Bus Interface Util: 
issued_total_row = 56 
issued_total_col = 1876 
Row_Bus_Util =  0.001687 
CoL_Bus_Util = 0.056523 
Either_Row_CoL_Bus_Util = 0.058180 
Issued_on_Two_Bus_Simul_Util = 0.000030 
issued_two_Eff = 0.000518 
queue_avg = 0.201778 


dram_util_bins: 0 0 0 0 0 0 0 0 0 0
dram_eff_bins: 0 0 0 0 0 0 0 0 0 0
mrqq: max=12 avg=0.201778
Memory Partition 8: 
Cache L2_bank_016:
MSHR contents

Cache L2_bank_017:
MSHR contents

In Dram Latency Queue (total = 0): 
DRAM[8]: 16 bks, busW=4 BL=8 CL=16, tRRD=8 tCCD=2, tRCD=16 tRAS=37 tRP=16 tRC=52
n_cmd=33190 n_nop=31154 n_act=36 n_pre=20 n_ref_event=0 n_req=1980 n_rd=1980 n_rd_L2_A=0 n_write=0 n_wr_bk=0 bw_util=0.1193
n_activity=9674 dram_eff=0.4093
bk0: 144a 32853i bk1: 192a 32751i bk2: 132a 32837i bk3: 104a 32945i bk4: 120a 32877i bk5: 124a 32836i bk6: 116a 32873i bk7: 152a 32750i bk8: 140a 32822i bk9: 120a 32937i bk10: 92a 32956i bk11: 72a 33034i bk12: 132a 32942i bk13: 120a 32909i bk14: 120a 32930i bk15: 100a 32914i 

------------------------------------------------------------------------

Row_Buffer_Locality = 0.989899
Row_Buffer_Locality_read = 0.989899
Row_Buffer_Locality_write = -nan
Bank_Level_Parallism = 1.261587
Bank_Level_Parallism_Col = 1.248595
Bank_Level_Parallism_Ready = 1.089304
write_to_read_ratio_blp_rw_average = 0.000000
GrpLevelPara = 1.248595 

BW Util details:
bwutil = 0.119313 
total_CMD = 33190 
util_bw = 3960 
Wasted_Col = 1870 
Wasted_Row = 191 
Idle = 27169 

BW Util Bottlenecks: 
RCDc_limit = 451 
RCDWRc_limit = 0 
WTRc_limit = 0 
RTWc_limit = 0 
CCDLc_limit = 1512 
rwq = 0 
CCDLc_limit_alone = 1512 
WTRc_limit_alone = 0 
RTWc_limit_alone = 0 

Commands details: 
total_CMD = 33190 
n_nop = 31154 
Read = 1980 
Write = 0 
L2_Alloc = 0 
L2_WB = 0 
n_act = 36 
n_pre = 20 
n_ref = 0 
n_req = 1980 
total_req = 1980 

Dual Bus Interface Util: 
issued_total_row = 56 
issued_total_col = 1980 
Row_Bus_Util =  0.001687 
CoL_Bus_Util = 0.059657 
Either_Row_CoL_Bus_Util = 0.061344 
Issued_on_Two_Bus_Simul_Util = 0.000000 
issued_two_Eff = 0.000000 
queue_avg = 0.228020 


dram_util_bins: 0 0 0 0 0 0 0 0 0 0
dram_eff_bins: 0 0 0 0 0 0 0 0 0 0
mrqq: max=11 avg=0.22802
Memory Partition 9: 
Cache L2_bank_018:
MSHR contents

Cache L2_bank_019:
MSHR contents

In Dram Latency Queue (total = 0): 
DRAM[9]: 16 bks, busW=4 BL=8 CL=16, tRRD=8 tCCD=2, tRCD=16 tRAS=37 tRP=16 tRC=52
n_cmd=33190 n_nop=31258 n_act=36 n_pre=20 n_ref_event=0 n_req=1876 n_rd=1876 n_rd_L2_A=0 n_write=0 n_wr_bk=0 bw_util=0.113
n_activity=9650 dram_eff=0.3888
bk0: 124a 32874i bk1: 144a 32867i bk2: 148a 32829i bk3: 120a 32822i bk4: 128a 32812i bk5: 124a 32823i bk6: 176a 32787i bk7: 84a 32960i bk8: 96a 32974i bk9: 72a 33015i bk10: 100a 32963i bk11: 124a 32876i bk12: 128a 32926i bk13: 116a 32963i bk14: 108a 32965i bk15: 84a 32976i 

------------------------------------------------------------------------

Row_Buffer_Locality = 0.989339
Row_Buffer_Locality_read = 0.989339
Row_Buffer_Locality_write = -nan
Bank_Level_Parallism = 1.204941
Bank_Level_Parallism_Col = 1.195429
Bank_Level_Parallism_Ready = 1.074627
write_to_read_ratio_blp_rw_average = 0.000000
GrpLevelPara = 1.195429 

BW Util details:
bwutil = 0.113046 
total_CMD = 33190 
util_bw = 3752 
Wasted_Col = 2027 
Wasted_Row = 229 
Idle = 27182 

BW Util Bottlenecks: 
RCDc_limit = 468 
RCDWRc_limit = 0 
WTRc_limit = 0 
RTWc_limit = 0 
CCDLc_limit = 1645 
rwq = 0 
CCDLc_limit_alone = 1645 
WTRc_limit_alone = 0 
RTWc_limit_alone = 0 

Commands details: 
total_CMD = 33190 
n_nop = 31258 
Read = 1876 
Write = 0 
L2_Alloc = 0 
L2_WB = 0 
n_act = 36 
n_pre = 20 
n_ref = 0 
n_req = 1876 
total_req = 1876 

Dual Bus Interface Util: 
issued_total_row = 56 
issued_total_col = 1876 
Row_Bus_Util =  0.001687 
CoL_Bus_Util = 0.056523 
Either_Row_CoL_Bus_Util = 0.058210 
Issued_on_Two_Bus_Simul_Util = 0.000000 
issued_two_Eff = 0.000000 
queue_avg = 0.216390 


dram_util_bins: 0 0 0 0 0 0 0 0 0 0
dram_eff_bins: 0 0 0 0 0 0 0 0 0 0
mrqq: max=10 avg=0.21639
Memory Partition 10: 
Cache L2_bank_020:
MSHR contents

Cache L2_bank_021:
MSHR contents

In Dram Latency Queue (total = 0): 
DRAM[10]: 16 bks, busW=4 BL=8 CL=16, tRRD=8 tCCD=2, tRCD=16 tRAS=37 tRP=16 tRC=52
n_cmd=33190 n_nop=31163 n_act=36 n_pre=20 n_ref_event=0 n_req=1972 n_rd=1972 n_rd_L2_A=0 n_write=0 n_wr_bk=0 bw_util=0.1188
n_activity=9639 dram_eff=0.4092
bk0: 160a 32763i bk1: 156a 32787i bk2: 148a 32815i bk3: 136a 32856i bk4: 104a 32942i bk5: 84a 32994i bk6: 112a 32916i bk7: 96a 32938i bk8: 112a 32904i bk9: 116a 32881i bk10: 100a 32956i bk11: 104a 32912i bk12: 120a 32893i bk13: 128a 32876i bk14: 156a 32851i bk15: 140a 32865i 

------------------------------------------------------------------------

Row_Buffer_Locality = 0.989858
Row_Buffer_Locality_read = 0.989858
Row_Buffer_Locality_write = -nan
Bank_Level_Parallism = 1.246069
Bank_Level_Parallism_Col = 1.233933
Bank_Level_Parallism_Ready = 1.075051
write_to_read_ratio_blp_rw_average = 0.000000
GrpLevelPara = 1.230681 

BW Util details:
bwutil = 0.118831 
total_CMD = 33190 
util_bw = 3944 
Wasted_Col = 1964 
Wasted_Row = 204 
Idle = 27078 

BW Util Bottlenecks: 
RCDc_limit = 422 
RCDWRc_limit = 0 
WTRc_limit = 0 
RTWc_limit = 0 
CCDLc_limit = 1621 
rwq = 0 
CCDLc_limit_alone = 1621 
WTRc_limit_alone = 0 
RTWc_limit_alone = 0 

Commands details: 
total_CMD = 33190 
n_nop = 31163 
Read = 1972 
Write = 0 
L2_Alloc = 0 
L2_WB = 0 
n_act = 36 
n_pre = 20 
n_ref = 0 
n_req = 1972 
total_req = 1972 

Dual Bus Interface Util: 
issued_total_row = 56 
issued_total_col = 1972 
Row_Bus_Util =  0.001687 
CoL_Bus_Util = 0.059415 
Either_Row_CoL_Bus_Util = 0.061073 
Issued_on_Two_Bus_Simul_Util = 0.000030 
issued_two_Eff = 0.000493 
queue_avg = 0.265261 


dram_util_bins: 0 0 0 0 0 0 0 0 0 0
dram_eff_bins: 0 0 0 0 0 0 0 0 0 0
mrqq: max=23 avg=0.265261
Memory Partition 11: 
Cache L2_bank_022:
MSHR contents

Cache L2_bank_023:
MSHR contents

In Dram Latency Queue (total = 0): 
DRAM[11]: 16 bks, busW=4 BL=8 CL=16, tRRD=8 tCCD=2, tRCD=16 tRAS=37 tRP=16 tRC=52
n_cmd=33190 n_nop=31390 n_act=36 n_pre=20 n_ref_event=0 n_req=1744 n_rd=1744 n_rd_L2_A=0 n_write=0 n_wr_bk=0 bw_util=0.1051
n_activity=9295 dram_eff=0.3753
bk0: 128a 32907i bk1: 124a 32910i bk2: 128a 32912i bk3: 120a 32889i bk4: 96a 32936i bk5: 128a 32868i bk6: 92a 32954i bk7: 92a 32960i bk8: 100a 32970i bk9: 108a 32918i bk10: 104a 32943i bk11: 100a 32958i bk12: 136a 32861i bk13: 104a 32970i bk14: 88a 32997i bk15: 96a 32973i 

------------------------------------------------------------------------

Row_Buffer_Locality = 0.988532
Row_Buffer_Locality_read = 0.988532
[...]
queue_avg = 0.232988 


dram_util_bins: 0 0 0 0 0 0 0 0 0 0
dram_eff_bins: 0 0 0 0 0 0 0 0 0 0
mrqq: max=17 avg=0.232988
Memory Partition 6: 
Cache L2_bank_012:
MSHR contents

Cache L2_bank_013:
MSHR contents

In Dram Latency Queue (total = 0): 
DRAM[6]: 16 bks, busW=4 BL=8 CL=16, tRRD=8 tCCD=2, tRCD=16 tRAS=37 tRP=16 tRC=52
n_cmd=163888 n_nop=154917 n_act=172 n_pre=156 n_ref_event=0 n_req=8643 n_rd=8643 n_rd_L2_A=0 n_write=0 n_wr_bk=0 bw_util=0.1055
n_activity=46249 dram_eff=0.3738
bk0: 578a 162447i bk1: 509a 162544i bk2: 539a 162535i bk3: 521a 162456i bk4: 608a 162347i bk5: 584a 162425i bk6: 552a 162553i bk7: 488a 162593i bk8: 504a 162611i bk9: 608a 162345i bk10: 460a 162778i bk11: 492a 162636i bk12: 576a 162543i bk13: 492a 162658i bk14: 556a 162595i bk15: 576a 162573i 

------------------------------------------------------------------------

Row_Buffer_Locality = 0.981951
Row_Buffer_Locality_read = 0.981951
Row_Buffer_Locality_write = -nan
Bank_Level_Parallism = 1.184944
Bank_Level_Parallism_Col = 1.160908
Bank_Level_Parallism_Ready = 1.042201
write_to_read_ratio_blp_rw_average = 0.000000
GrpLevelPara = 1.159545 

BW Util details:
bwutil = 0.105474 
total_CMD = 163888 
util_bw = 17286 
Wasted_Col = 9627 
Wasted_Row = 1626 
Idle = 135349 

BW Util Bottlenecks: 
RCDc_limit = 2235 
RCDWRc_limit = 0 
WTRc_limit = 0 
RTWc_limit = 0 
CCDLc_limit = 7798 
rwq = 0 
CCDLc_limit_alone = 7798 
WTRc_limit_alone = 0 
RTWc_limit_alone = 0 

Commands details: 
total_CMD = 163888 
n_nop = 154917 
Read = 8643 
Write = 0 
L2_Alloc = 0 
L2_WB = 0 
n_act = 172 
n_pre = 156 
n_ref = 0 
n_req = 8643 
total_req = 8643 

Dual Bus Interface Util: 
issued_total_row = 328 
issued_total_col = 8643 
Row_Bus_Util =  0.002001 
CoL_Bus_Util = 0.052737 
Either_Row_CoL_Bus_Util = 0.054739 
Issued_on_Two_Bus_Simul_Util = 0.000000 
issued_two_Eff = 0.000000 
queue_avg = 0.212865 


dram_util_bins: 0 0 0 0 0 0 0 0 0 0
dram_eff_bins: 0 0 0 0 0 0 0 0 0 0
mrqq: max=17 avg=0.212865
Memory Partition 7: 
Cache L2_bank_014:
MSHR contents

Cache L2_bank_015:
MSHR contents

In Dram Latency Queue (total = 0): 
DRAM[7]: 16 bks, busW=4 BL=8 CL=16, tRRD=8 tCCD=2, tRCD=16 tRAS=37 tRP=16 tRC=52
n_cmd=163888 n_nop=154119 n_act=171 n_pre=155 n_ref_event=0 n_req=9444 n_rd=9444 n_rd_L2_A=0 n_write=0 n_wr_bk=0 bw_util=0.1152
n_activity=49705 dram_eff=0.38
bk0: 657a 162267i bk1: 587a 162333i bk2: 583a 162403i bk3: 561a 162463i bk4: 604a 162376i bk5: 576a 162369i bk6: 580a 162430i bk7: 576a 162340i bk8: 508a 162616i bk9: 592a 162427i bk10: 584a 162531i bk11: 584a 162505i bk12: 564a 162553i bk13: 656a 162261i bk14: 688a 162306i bk15: 544a 162533i 

------------------------------------------------------------------------

Row_Buffer_Locality = 0.983587
Row_Buffer_Locality_read = 0.983587
Row_Buffer_Locality_write = -nan
Bank_Level_Parallism = 1.190034
Bank_Level_Parallism_Col = 1.175637
Bank_Level_Parallism_Ready = 1.052503
write_to_read_ratio_blp_rw_average = 0.000000
GrpLevelPara = 1.174070 

BW Util details:
bwutil = 0.115249 
total_CMD = 163888 
util_bw = 18888 
Wasted_Col = 10161 
Wasted_Row = 1738 
Idle = 133101 

BW Util Bottlenecks: 
RCDc_limit = 2220 
RCDWRc_limit = 0 
WTRc_limit = 0 
RTWc_limit = 0 
CCDLc_limit = 8343 
rwq = 0 
CCDLc_limit_alone = 8343 
WTRc_limit_alone = 0 
RTWc_limit_alone = 0 

Commands details: 
total_CMD = 163888 
n_nop = 154119 
Read = 9444 
Write = 0 
L2_Alloc = 0 
L2_WB = 0 
n_act = 171 
n_pre = 155 
n_ref = 0 
n_req = 9444 
total_req = 9444 

Dual Bus Interface Util: 
issued_total_row = 326 
issued_total_col = 9444 
Row_Bus_Util =  0.001989 
CoL_Bus_Util = 0.057625 
Either_Row_CoL_Bus_Util = 0.059608 
Issued_on_Two_Bus_Simul_Util = 0.000006 
issued_two_Eff = 0.000102 
queue_avg = 0.211803 


dram_util_bins: 0 0 0 0 0 0 0 0 0 0
dram_eff_bins: 0 0 0 0 0 0 0 0 0 0
mrqq: max=18 avg=0.211803
Memory Partition 8: 
Cache L2_bank_016:
MSHR contents

Cache L2_bank_017:
MSHR contents

In Dram Latency Queue (total = 0): 
DRAM[8]: 16 bks, busW=4 BL=8 CL=16, tRRD=8 tCCD=2, tRCD=16 tRAS=37 tRP=16 tRC=52
n_cmd=163888 n_nop=154125 n_act=173 n_pre=157 n_ref_event=0 n_req=9434 n_rd=9434 n_rd_L2_A=0 n_write=0 n_wr_bk=0 bw_util=0.1151
n_activity=48993 dram_eff=0.3851
bk0: 596a 162367i bk1: 674a 162210i bk2: 631a 162331i bk3: 573a 162431i bk4: 632a 162317i bk5: 524a 162492i bk6: 572a 162462i bk7: 636a 162248i bk8: 596a 162378i bk9: 564a 162531i bk10: 584a 162392i bk11: 484a 162723i bk12: 568a 162483i bk13: 572a 162383i bk14: 676a 162327i bk15: 552a 162496i 

------------------------------------------------------------------------

Row_Buffer_Locality = 0.983358
Row_Buffer_Locality_read = 0.983358
Row_Buffer_Locality_write = -nan
Bank_Level_Parallism = 1.212204
Bank_Level_Parallism_Col = 1.190747
Bank_Level_Parallism_Ready = 1.058593
write_to_read_ratio_blp_rw_average = 0.000000
GrpLevelPara = 1.189798 

BW Util details:
bwutil = 0.115127 
total_CMD = 163888 
util_bw = 18868 
Wasted_Col = 9898 
Wasted_Row = 1588 
Idle = 133534 

BW Util Bottlenecks: 
RCDc_limit = 2245 
RCDWRc_limit = 0 
WTRc_limit = 0 
RTWc_limit = 0 
CCDLc_limit = 8103 
rwq = 0 
CCDLc_limit_alone = 8103 
WTRc_limit_alone = 0 
RTWc_limit_alone = 0 

Commands details: 
total_CMD = 163888 
n_nop = 154125 
Read = 9434 
Write = 0 
L2_Alloc = 0 
L2_WB = 0 
n_act = 173 
n_pre = 157 
n_ref = 0 
n_req = 9434 
total_req = 9434 

Dual Bus Interface Util: 
issued_total_row = 330 
issued_total_col = 9434 
Row_Bus_Util =  0.002014 
CoL_Bus_Util = 0.057564 
Either_Row_CoL_Bus_Util = 0.059571 
Issued_on_Two_Bus_Simul_Util = 0.000006 
issued_two_Eff = 0.000102 
queue_avg = 0.210717 


dram_util_bins: 0 0 0 0 0 0 0 0 0 0
dram_eff_bins: 0 0 0 0 0 0 0 0 0 0
mrqq: max=18 avg=0.210717
Memory Partition 9: 
Cache L2_bank_018:
MSHR contents

Cache L2_bank_019:
MSHR contents

In Dram Latency Queue (total = 0): 
DRAM[9]: 16 bks, busW=4 BL=8 CL=16, tRRD=8 tCCD=2, tRCD=16 tRAS=37 tRP=16 tRC=52
n_cmd=163888 n_nop=154408 n_act=170 n_pre=154 n_ref_event=0 n_req=9158 n_rd=9158 n_rd_L2_A=0 n_write=0 n_wr_bk=0 bw_util=0.1118
n_activity=48355 dram_eff=0.3788
bk0: 544a 162450i bk1: 600a 162417i bk2: 558a 162537i bk3: 608a 162316i bk4: 620a 162303i bk5: 600a 162222i bk6: 600a 162463i bk7: 548a 162476i bk8: 520a 162562i bk9: 504a 162572i bk10: 560a 162568i bk11: 552a 162474i bk12: 652a 162289i bk13: 604a 162459i bk14: 576a 162621i bk15: 512a 162583i 

------------------------------------------------------------------------

Row_Buffer_Locality = 0.983184
Row_Buffer_Locality_read = 0.983184
Row_Buffer_Locality_write = -nan
Bank_Level_Parallism = 1.197329
Bank_Level_Parallism_Col = 1.178332
Bank_Level_Parallism_Ready = 1.060904
write_to_read_ratio_blp_rw_average = 0.000000
GrpLevelPara = 1.178251 

BW Util details:
bwutil = 0.111759 
total_CMD = 163888 
util_bw = 18316 
Wasted_Col = 9954 
Wasted_Row = 1636 
Idle = 133982 

BW Util Bottlenecks: 
RCDc_limit = 2212 
RCDWRc_limit = 0 
WTRc_limit = 0 
RTWc_limit = 0 
CCDLc_limit = 8076 
rwq = 0 
CCDLc_limit_alone = 8076 
WTRc_limit_alone = 0 
RTWc_limit_alone = 0 

Commands details: 
total_CMD = 163888 
n_nop = 154408 
Read = 9158 
Write = 0 
L2_Alloc = 0 
L2_WB = 0 
n_act = 170 
n_pre = 154 
n_ref = 0 
n_req = 9158 
total_req = 9158 

Dual Bus Interface Util: 
issued_total_row = 324 
issued_total_col = 9158 
Row_Bus_Util =  0.001977 
CoL_Bus_Util = 0.055880 
Either_Row_CoL_Bus_Util = 0.057844 
Issued_on_Two_Bus_Simul_Util = 0.000012 
issued_two_Eff = 0.000211 
queue_avg = 0.241451 


dram_util_bins: 0 0 0 0 0 0 0 0 0 0
dram_eff_bins: 0 0 0 0 0 0 0 0 0 0
mrqq: max=27 avg=0.241451
Memory Partition 10: 
Cache L2_bank_020:
MSHR contents

Cache L2_bank_021:
MSHR contents

In Dram Latency Queue (total = 0): 
DRAM[10]: 16 bks, busW=4 BL=8 CL=16, tRRD=8 tCCD=2, tRCD=16 tRAS=37 tRP=16 tRC=52
n_cmd=163888 n_nop=154232 n_act=173 n_pre=157 n_ref_event=0 n_req=9328 n_rd=9328 n_rd_L2_A=0 n_write=0 n_wr_bk=0 bw_util=0.1138
n_activity=48411 dram_eff=0.3854
bk0: 558a 162491i bk1: 640a 162307i bk2: 552a 162468i bk3: 606a 162410i bk4: 608a 162409i bk5: 548a 162504i bk6: 568a 162473i bk7: 580a 162437i bk8: 580a 162469i bk9: 560a 162383i bk10: 592a 162442i bk11: 564a 162421i bk12: 620a 162416i bk13: 608a 162420i bk14: 576a 162539i bk15: 568a 162518i 

------------------------------------------------------------------------

Row_Buffer_Locality = 0.983169
Row_Buffer_Locality_read = 0.983169
Row_Buffer_Locality_write = -nan
Bank_Level_Parallism = 1.208271
Bank_Level_Parallism_Col = 1.181074
Bank_Level_Parallism_Ready = 1.047027
write_to_read_ratio_blp_rw_average = 0.000000
GrpLevelPara = 1.180352 

BW Util details:
bwutil = 0.113834 
total_CMD = 163888 
util_bw = 18656 
Wasted_Col = 9795 
Wasted_Row = 1516 
Idle = 133921 

BW Util Bottlenecks: 
RCDc_limit = 2199 
RCDWRc_limit = 0 
WTRc_limit = 0 
RTWc_limit = 0 
CCDLc_limit = 8023 
rwq = 0 
CCDLc_limit_alone = 8023 
WTRc_limit_alone = 0 
RTWc_limit_alone = 0 

Commands details: 
total_CMD = 163888 
n_nop = 154232 
Read = 9328 
Write = 0 
L2_Alloc = 0 
L2_WB = 0 
n_act = 173 
n_pre = 157 
n_ref = 0 
n_req = 9328 
total_req = 9328 

Dual Bus Interface Util: 
issued_total_row = 330 
issued_total_col = 9328 
Row_Bus_Util =  0.002014 
CoL_Bus_Util = 0.056917 
Either_Row_CoL_Bus_Util = 0.058918 
Issued_on_Two_Bus_Simul_Util = 0.000012 
issued_two_Eff = 0.000207 
queue_avg = 0.247218 


dram_util_bins: 0 0 0 0 0 0 0 0 0 0
dram_eff_bins: 0 0 0 0 0 0 0 0 0 0
mrqq: max=23 avg=0.247218
Memory Partition 11: 
Cache L2_bank_022:
MSHR contents

Cache L2_bank_023:
MSHR contents

In Dram Latency Queue (total = 0): 
DRAM[11]: 16 bks, busW=4 BL=8 CL=16, tRRD=8 tCCD=2, tRCD=16 tRAS=37 tRP=16 tRC=52
n_cmd=163888 n_nop=154877 n_act=173 n_pre=157 n_ref_event=0 n_req=8678 n_rd=8677 n_rd_L2_A=0 n_write=0 n_wr_bk=4 bw_util=0.1059
n_activity=47100 dram_eff=0.3686
bk0: 544a 162559i bk1: 619a 162433i bk2: 621a 162294i bk3: 623a 162387i bk4: 556a 162517i bk5: 606a 162358i bk6: 556a 162468i bk7: 492a 162529i bk8: 476a 162674i bk9: 520a 162557i bk10: 464a 162744i bk11: 520a 162577i bk12: 520a 162632i bk13: 564a 162566i bk14: 452a 162774i bk15: 544a 162571i 

------------------------------------------------------------------------

Row_Buffer_Locality = 0.981908
Row_Buffer_Locality_read = 0.982021
Row_Buffer_Locality_write = 0.000000
Bank_Level_Parallism = 1.183790
Bank_Level_Parallism_Col = 1.160386
Bank_Level_Parallism_Ready = 1.044999
write_to_read_ratio_blp_rw_average = 0.002509
GrpLevelPara = 1.159195 

BW Util details:
bwutil = 0.105938 
total_CMD = 163888 
util_bw = 17362 
Wasted_Col = 9612 
Wasted_Row = 1644 
Idle = 135270 

BW Util Bottlenecks: 
RCDc_limit = 2231 
RCDWRc_limit = 4 
WTRc_limit = 12 
RTWc_limit = 42 
CCDLc_limit = 7753 
rwq = 0 
CCDLc_limit_alone = 7753 
WTRc_limit_alone = 12 
RTWc_limit_alone = 42 

Commands details: 
total_CMD = 163888 
n_nop = 154877 
Read = 8677 
Write = 0 
L2_Alloc = 0 
L2_WB = 4 
n_act = 173 
n_pre = 157 
n_ref = 0 
n_req = 8678 
total_req = 8681 

Dual Bus Interface Util: 
issued_total_row = 330 
issued_total_col = 8681 
Row_Bus_Util =  0.002014 
CoL_Bus_Util = 0.052969 
Either_Row_CoL_Bus_Util = 0.054983 
Issued_on_Two_Bus_Simul_Util = 0.000000 
issued_two_Eff = 0.000000 
queue_avg = 0.195170 


dram_util_bins: 0 0 0 0 0 0 0 0 0 0
dram_eff_bins: 0 0 0 0 0 0 0 0 0 0
mrqq: max=21 avg=0.19517

========= L2 cache stats =========
L2_cache_bank[0]: Access = 7543, Miss = 4382, Miss_rate = 0.581, Pending_hits = 1498, Reservation_fails = 0
L2_cache_bank[1]: Access = 7545, Miss = 4224, Miss_rate = 0.560, Pending_hits = 1388, Reservation_fails = 0
L2_cache_bank[2]: Access = 7805, Miss = 4730, Miss_rate = 0.606, Pending_hits = 1514, Reservation_fails = 0
L2_cache_bank[3]: Access = 7362, Miss = 4376, Miss_rate = 0.594, Pending_hits = 1430, Reservation_fails = 0
L2_cache_bank[4]: Access = 7716, Miss = 4216, Miss_rate = 0.546, Pending_hits = 1456, Reservation_fails = 0
L2_cache_bank[5]: Access = 7758, Miss = 4638, Miss_rate = 0.598, Pending_hits = 1570, Reservation_fails = 0
L2_cache_bank[6]: Access = 7610, Miss = 4638, Miss_rate = 0.609, Pending_hits = 1453, Reservation_fails = 0
L2_cache_bank[7]: Access = 7934, Miss = 4590, Miss_rate = 0.579, Pending_hits = 1523, Reservation_fails = 0
L2_cache_bank[8]: Access = 8209, Miss = 5110, Miss_rate = 0.622, Pending_hits = 1646, Reservation_fails = 0
L2_cache_bank[9]: Access = 7800, Miss = 4590, Miss_rate = 0.588, Pending_hits = 1520, Reservation_fails = 0
L2_cache_bank[10]: Access = 7733, Miss = 4444, Miss_rate = 0.575, Pending_hits = 1524, Reservation_fails = 0
L2_cache_bank[11]: Access = 7845, Miss = 4800, Miss_rate = 0.612, Pending_hits = 1619, Reservation_fails = 0
L2_cache_bank[12]: Access = 7397, Miss = 4236, Miss_rate = 0.573, Pending_hits = 1376, Reservation_fails = 0
L2_cache_bank[13]: Access = 7540, Miss = 4542, Miss_rate = 0.602, Pending_hits = 1467, Reservation_fails = 0
L2_cache_bank[14]: Access = 7442, Miss = 4052, Miss_rate = 0.544, Pending_hits = 1366, Reservation_fails = 0
L2_cache_bank[15]: Access = 8255, Miss = 5492, Miss_rate = 0.665, Pending_hits = 1837, Reservation_fails = 0
L2_cache_bank[16]: Access = 7634, Miss = 4634, Miss_rate = 0.607, Pending_hits = 1441, Reservation_fails = 0
L2_cache_bank[17]: Access = 7928, Miss = 4930, Miss_rate = 0.622, Pending_hits = 1627, Reservation_fails = 0
L2_cache_bank[18]: Access = 7495, Miss = 4258, Miss_rate = 0.568, Pending_hits = 1368, Reservation_fails = 0
L2_cache_bank[19]: Access = 8347, Miss = 5042, Miss_rate = 0.604, Pending_hits = 1697, Reservation_fails = 0
L2_cache_bank[20]: Access = 7855, Miss = 4360, Miss_rate = 0.555, Pending_hits = 1476, Reservation_fails = 0
L2_cache_bank[21]: Access = 8105, Miss = 5104, Miss_rate = 0.630, Pending_hits = 1677, Reservation_fails = 0
L2_cache_bank[22]: Access = 7672, Miss = 4498, Miss_rate = 0.586, Pending_hits = 1473, Reservation_fails = 0
L2_cache_bank[23]: Access = 7575, Miss = 4326, Miss_rate = 0.571, Pending_hits = 1448, Reservation_fails = 0
L2_total_cache_accesses = 186105
L2_total_cache_misses = 110212
L2_total_cache_miss_rate = 0.5922
L2_total_cache_pending_hits = 36394
L2_total_cache_reservation_fails = 0
L2_total_cache_breakdown:
	L2_cache_stats_breakdown[GLOBAL_ACC_R][HIT] = 33293
	L2_cache_stats_breakdown[GLOBAL_ACC_R][HIT_RESERVED] = 36394
	L2_cache_stats_breakdown[GLOBAL_ACC_R][MISS] = 27063
	L2_cache_stats_breakdown[GLOBAL_ACC_R][RESERVATION_FAIL] = 0
	L2_cache_stats_breakdown[GLOBAL_ACC_R][SECTOR_MISS] = 81520
	L2_cache_stats_breakdown[LOCAL_ACC_R][HIT] = 0
	L2_cache_stats_breakdown[LOCAL_ACC_R][HIT_RESERVED] = 0
	L2_cache_stats_breakdown[LOCAL_ACC_R][MISS] = 0
	L2_cache_stats_breakdown[LOCAL_ACC_R][RESERVATION_FAIL] = 0
	L2_cache_stats_breakdown[LOCAL_ACC_R][SECTOR_MISS] = 0
	L2_cache_stats_breakdown[CONST_ACC_R][HIT] = 0
	L2_cache_stats_breakdown[CONST_ACC_R][HIT_RESERVED] = 0
	L2_cache_stats_breakdown[CONST_ACC_R][MISS] = 0
	L2_cache_stats_breakdown[CONST_ACC_R][RESERVATION_FAIL] = 0
	L2_cache_stats_breakdown[CONST_ACC_R][SECTOR_MISS] = 0
	L2_cache_stats_breakdown[TEXTURE_ACC_R][HIT] = 0
	L2_cache_stats_breakdown[TEXTURE_ACC_R][HIT_RESERVED] = 0
	L2_cache_stats_breakdown[TEXTURE_ACC_R][MISS] = 0
	L2_cache_stats_breakdown[TEXTURE_ACC_R][RESERVATION_FAIL] = 0
	L2_cache_stats_breakdown[TEXTURE_ACC_R][SECTOR_MISS] = 0
	L2_cache_stats_breakdown[GLOBAL_ACC_W][HIT] = 6206
	L2_cache_stats_breakdown[GLOBAL_ACC_W][HIT_RESERVED] = 0
	L2_cache_stats_breakdown[GLOBAL_ACC_W][MISS] = 324
	L2_cache_stats_breakdown[GLOBAL_ACC_W][RESERVATION_FAIL] = 0
	L2_cache_stats_breakdown[GLOBAL_ACC_W][SECTOR_MISS] = 1305
	L2_cache_stats_breakdown[LOCAL_ACC_W][HIT] = 0
	L2_cache_stats_breakdown[LOCAL_ACC_W][HIT_RESERVED] = 0
	L2_cache_stats_breakdown[LOCAL_ACC_W][MISS] = 0
	L2_cache_stats_breakdown[LOCAL_ACC_W][RESERVATION_FAIL] = 0
	L2_cache_stats_breakdown[LOCAL_ACC_W][SECTOR_MISS] = 0
	L2_cache_stats_breakdown[L1_WRBK_ACC][HIT] = 0
	L2_cache_stats_breakdown[L1_WRBK_ACC][HIT_RESERVED] = 0
	L2_cache_stats_breakdown[L1_WRBK_ACC][MISS] = 0
	L2_cache_stats_breakdown[L1_WRBK_ACC][RESERVATION_FAIL] = 0
	L2_cache_stats_breakdown[L1_WRBK_ACC][SECTOR_MISS] = 0
	L2_cache_stats_breakdown[L2_WRBK_ACC][HIT] = 0
	L2_cache_stats_breakdown[L2_WRBK_ACC][HIT_RESERVED] = 0
	L2_cache_stats_breakdown[L2_WRBK_ACC][MISS] = 0
	L2_cache_stats_breakdown[L2_WRBK_ACC][RESERVATION_FAIL] = 0
	L2_cache_stats_breakdown[L2_WRBK_ACC][SECTOR_MISS] = 0
	L2_cache_stats_breakdown[INST_ACC_R][HIT] = 0
	L2_cache_stats_breakdown[INST_ACC_R][HIT_RESERVED] = 0
	L2_cache_stats_breakdown[INST_ACC_R][MISS] = 0
	L2_cache_stats_breakdown[INST_ACC_R][RESERVATION_FAIL] = 0
	L2_cache_stats_breakdown[INST_ACC_R][SECTOR_MISS] = 0
	L2_cache_stats_breakdown[L1_WR_ALLOC_R][HIT] = 0
	L2_cache_stats_breakdown[L1_WR_ALLOC_R][HIT_RESERVED] = 0
	L2_cache_stats_breakdown[L1_WR_ALLOC_R][MISS] = 0
	L2_cache_stats_breakdown[L1_WR_ALLOC_R][RESERVATION_FAIL] = 0
	L2_cache_stats_breakdown[L1_WR_ALLOC_R][SECTOR_MISS] = 0
	L2_cache_stats_breakdown[L2_WR_ALLOC_R][HIT] = 0
	L2_cache_stats_breakdown[L2_WR_ALLOC_R][HIT_RESERVED] = 0
	L2_cache_stats_breakdown[L2_WR_ALLOC_R][MISS] = 0
	L2_cache_stats_breakdown[L2_WR_ALLOC_R][RESERVATION_FAIL] = 0
	L2_cache_stats_breakdown[L2_WR_ALLOC_R][SECTOR_MISS] = 0
	L2_cache_stats_breakdown[GLOBAL_ACC_R][TOTAL_ACCESS] = 178270
	L2_cache_stats_breakdown[GLOBAL_ACC_W][TOTAL_ACCESS] = 7835
L2_total_cache_reservation_fail_breakdown:
L2_cache_data_port_util = 0.018
L2_cache_fill_port_util = 0.049

icnt_total_pkts_mem_to_simt=186105
icnt_total_pkts_simt_to_mem=186105
LD_mem_lat_dist  0 0 0 0 0 0 0 0 0 0 0 0 0 0 0 0 0 0 0 0 0 0 0 0 0 0 0
ST_mem_lat_dist  0 0 0 0 0 0 0 0 0 0 0 0 0 0 0 0 0 0 0 0 0 0 0 0 0 0 0
----------------------------Interconnect-DETAILS--------------------------------
Class 0:
Packet latency average = 8.28872
	minimum = 5
	maximum = 69
Network latency average = 8.28872
	minimum = 5
	maximum = 69
Slowest packet = 305072
Flit latency average = 8.28872
	minimum = 5
	maximum = 69
Slowest flit = 305072
Fragmentation average = 0
	minimum = 0
	maximum = 0
Injected packet rate average = 0.0734316
	minimum = 0.0353549 (at node 10)
	maximum = 0.0888877 (at node 50)
Accepted packet rate average = 0.0734316
	minimum = 0.0353549 (at node 10)
	maximum = 0.0888877 (at node 50)
Injected flit rate average = 0.0734316
	minimum = 0.0353549 (at node 10)
	maximum = 0.0888877 (at node 50)
Accepted flit rate average= 0.0734316
	minimum = 0.0353549 (at node 10)
	maximum = 0.0888877 (at node 50)
Injected packet length average = 1
Accepted packet length average = 1
Total in-flight flits = 0 (0 measured)
====== Overall Traffic Statistics ======
====== Traffic class 0 ======
Packet latency average = 8.90139 (5 samples)
	minimum = 5 (5 samples)
	maximum = 72.6 (5 samples)
Network latency average = 8.90139 (5 samples)
	minimum = 5 (5 samples)
	maximum = 72.6 (5 samples)
Flit latency average = 8.90139 (5 samples)
	minimum = 5 (5 samples)
	maximum = 72.6 (5 samples)
Fragmentation average = 0 (5 samples)
	minimum = 0 (5 samples)
	maximum = 0 (5 samples)
Injected packet rate average = 0.0770254 (5 samples)
	minimum = 0.0421018 (5 samples)
	maximum = 0.0935456 (5 samples)
Accepted packet rate average = 0.0770254 (5 samples)
	minimum = 0.0421018 (5 samples)
	maximum = 0.0935456 (5 samples)
Injected flit rate average = 0.0770254 (5 samples)
	minimum = 0.0421018 (5 samples)
	maximum = 0.0935456 (5 samples)
Accepted flit rate average = 0.0770254 (5 samples)
	minimum = 0.0421018 (5 samples)
	maximum = 0.0935456 (5 samples)
Injected packet size average = 1 (5 samples)
Accepted packet size average = 1 (5 samples)
Hops average = 1 (5 samples)
----------------------------END-of-Interconnect-DETAILS-------------------------


gpgpu_simulation_time = 0 days, 0 hrs, 2 min, 43 sec (163 sec)
gpgpu_simulation_rate = 385973 (inst/sec)
gpgpu_simulation_rate = 569 (cycle/sec)
gpgpu_silicon_slowdown = 2490333x
GPGPU-Sim: synchronize waiting for inactive GPU simulation
GPGPU-Sim API: Stream Manager State
GPGPU-Sim: detected inactive GPU simulation thread
GPGPU-Sim: *** exit detected ***
